* NGSPICE file created from tiny_user_project.ext - technology: gf180mcuC

* Black-box entry subcircuit for gf180mcu_fd_sc_mcu7t5v0__fill_1 abstract view
.subckt gf180mcu_fd_sc_mcu7t5v0__fill_1 VDD VSS
.ends

* Black-box entry subcircuit for gf180mcu_fd_sc_mcu7t5v0__fillcap_64 abstract view
.subckt gf180mcu_fd_sc_mcu7t5v0__fillcap_64 VDD VSS
.ends

* Black-box entry subcircuit for gf180mcu_fd_sc_mcu7t5v0__fillcap_4 abstract view
.subckt gf180mcu_fd_sc_mcu7t5v0__fillcap_4 VDD VSS
.ends

* Black-box entry subcircuit for gf180mcu_fd_sc_mcu7t5v0__fill_2 abstract view
.subckt gf180mcu_fd_sc_mcu7t5v0__fill_2 VDD VSS
.ends

* Black-box entry subcircuit for gf180mcu_fd_sc_mcu7t5v0__filltie abstract view
.subckt gf180mcu_fd_sc_mcu7t5v0__filltie VDD VSS
.ends

* Black-box entry subcircuit for gf180mcu_fd_sc_mcu7t5v0__fillcap_16 abstract view
.subckt gf180mcu_fd_sc_mcu7t5v0__fillcap_16 VDD VSS
.ends

* Black-box entry subcircuit for gf180mcu_fd_sc_mcu7t5v0__fillcap_8 abstract view
.subckt gf180mcu_fd_sc_mcu7t5v0__fillcap_8 VDD VSS
.ends

* Black-box entry subcircuit for gf180mcu_fd_sc_mcu7t5v0__fillcap_32 abstract view
.subckt gf180mcu_fd_sc_mcu7t5v0__fillcap_32 VDD VSS
.ends

* Black-box entry subcircuit for gf180mcu_fd_sc_mcu7t5v0__endcap abstract view
.subckt gf180mcu_fd_sc_mcu7t5v0__endcap VDD VSS
.ends

* Black-box entry subcircuit for gf180mcu_fd_sc_mcu7t5v0__tiel abstract view
.subckt gf180mcu_fd_sc_mcu7t5v0__tiel ZN VDD VSS
.ends

.subckt tiny_user_project io_in[0] io_in[10] io_in[11] io_in[12] io_in[13] io_in[14]
+ io_in[15] io_in[16] io_in[17] io_in[18] io_in[19] io_in[1] io_in[20] io_in[21] io_in[22]
+ io_in[23] io_in[24] io_in[25] io_in[26] io_in[27] io_in[28] io_in[29] io_in[2] io_in[30]
+ io_in[31] io_in[32] io_in[33] io_in[34] io_in[35] io_in[36] io_in[37] io_in[3] io_in[4]
+ io_in[5] io_in[6] io_in[7] io_in[8] io_in[9] io_oeb[0] io_oeb[10] io_oeb[11] io_oeb[12]
+ io_oeb[13] io_oeb[14] io_oeb[15] io_oeb[16] io_oeb[17] io_oeb[18] io_oeb[19] io_oeb[1]
+ io_oeb[20] io_oeb[21] io_oeb[22] io_oeb[23] io_oeb[24] io_oeb[25] io_oeb[26] io_oeb[27]
+ io_oeb[28] io_oeb[29] io_oeb[2] io_oeb[30] io_oeb[31] io_oeb[32] io_oeb[33] io_oeb[34]
+ io_oeb[35] io_oeb[36] io_oeb[37] io_oeb[3] io_oeb[4] io_oeb[5] io_oeb[6] io_oeb[7]
+ io_oeb[8] io_oeb[9] io_out[0] io_out[10] io_out[11] io_out[12] io_out[13] io_out[14]
+ io_out[15] io_out[16] io_out[17] io_out[18] io_out[19] io_out[1] io_out[20] io_out[21]
+ io_out[22] io_out[23] io_out[24] io_out[25] io_out[26] io_out[27] io_out[28] io_out[29]
+ io_out[2] io_out[30] io_out[31] io_out[32] io_out[33] io_out[34] io_out[35] io_out[36]
+ io_out[37] io_out[3] io_out[4] io_out[5] io_out[6] io_out[7] io_out[8] io_out[9]
+ la_data_in[0] la_data_in[10] la_data_in[11] la_data_in[12] la_data_in[13] la_data_in[14]
+ la_data_in[15] la_data_in[16] la_data_in[17] la_data_in[18] la_data_in[19] la_data_in[1]
+ la_data_in[20] la_data_in[21] la_data_in[22] la_data_in[23] la_data_in[24] la_data_in[25]
+ la_data_in[26] la_data_in[27] la_data_in[28] la_data_in[29] la_data_in[2] la_data_in[30]
+ la_data_in[31] la_data_in[32] la_data_in[33] la_data_in[34] la_data_in[35] la_data_in[36]
+ la_data_in[37] la_data_in[38] la_data_in[39] la_data_in[3] la_data_in[40] la_data_in[41]
+ la_data_in[42] la_data_in[43] la_data_in[44] la_data_in[45] la_data_in[46] la_data_in[47]
+ la_data_in[48] la_data_in[49] la_data_in[4] la_data_in[50] la_data_in[51] la_data_in[52]
+ la_data_in[53] la_data_in[54] la_data_in[55] la_data_in[56] la_data_in[57] la_data_in[58]
+ la_data_in[59] la_data_in[5] la_data_in[60] la_data_in[61] la_data_in[62] la_data_in[63]
+ la_data_in[6] la_data_in[7] la_data_in[8] la_data_in[9] la_data_out[0] la_data_out[10]
+ la_data_out[11] la_data_out[12] la_data_out[13] la_data_out[14] la_data_out[15]
+ la_data_out[16] la_data_out[17] la_data_out[18] la_data_out[19] la_data_out[1] la_data_out[20]
+ la_data_out[21] la_data_out[22] la_data_out[23] la_data_out[24] la_data_out[25]
+ la_data_out[26] la_data_out[27] la_data_out[28] la_data_out[29] la_data_out[2] la_data_out[30]
+ la_data_out[31] la_data_out[32] la_data_out[33] la_data_out[34] la_data_out[35]
+ la_data_out[36] la_data_out[37] la_data_out[38] la_data_out[39] la_data_out[3] la_data_out[40]
+ la_data_out[41] la_data_out[42] la_data_out[43] la_data_out[44] la_data_out[45]
+ la_data_out[46] la_data_out[47] la_data_out[48] la_data_out[49] la_data_out[4] la_data_out[50]
+ la_data_out[51] la_data_out[52] la_data_out[53] la_data_out[54] la_data_out[55]
+ la_data_out[56] la_data_out[57] la_data_out[58] la_data_out[59] la_data_out[5] la_data_out[60]
+ la_data_out[61] la_data_out[62] la_data_out[63] la_data_out[6] la_data_out[7] la_data_out[8]
+ la_data_out[9] la_oenb[0] la_oenb[10] la_oenb[11] la_oenb[12] la_oenb[13] la_oenb[14]
+ la_oenb[15] la_oenb[16] la_oenb[17] la_oenb[18] la_oenb[19] la_oenb[1] la_oenb[20]
+ la_oenb[21] la_oenb[22] la_oenb[23] la_oenb[24] la_oenb[25] la_oenb[26] la_oenb[27]
+ la_oenb[28] la_oenb[29] la_oenb[2] la_oenb[30] la_oenb[31] la_oenb[32] la_oenb[33]
+ la_oenb[34] la_oenb[35] la_oenb[36] la_oenb[37] la_oenb[38] la_oenb[39] la_oenb[3]
+ la_oenb[40] la_oenb[41] la_oenb[42] la_oenb[43] la_oenb[44] la_oenb[45] la_oenb[46]
+ la_oenb[47] la_oenb[48] la_oenb[49] la_oenb[4] la_oenb[50] la_oenb[51] la_oenb[52]
+ la_oenb[53] la_oenb[54] la_oenb[55] la_oenb[56] la_oenb[57] la_oenb[58] la_oenb[59]
+ la_oenb[5] la_oenb[60] la_oenb[61] la_oenb[62] la_oenb[63] la_oenb[6] la_oenb[7]
+ la_oenb[8] la_oenb[9] user_clock2 user_irq[0] user_irq[1] user_irq[2] vdd vss wb_clk_i
+ wb_rst_i wbs_ack_o wbs_adr_i[0] wbs_adr_i[10] wbs_adr_i[11] wbs_adr_i[12] wbs_adr_i[13]
+ wbs_adr_i[14] wbs_adr_i[15] wbs_adr_i[16] wbs_adr_i[17] wbs_adr_i[18] wbs_adr_i[19]
+ wbs_adr_i[1] wbs_adr_i[20] wbs_adr_i[21] wbs_adr_i[22] wbs_adr_i[23] wbs_adr_i[24]
+ wbs_adr_i[25] wbs_adr_i[26] wbs_adr_i[27] wbs_adr_i[28] wbs_adr_i[29] wbs_adr_i[2]
+ wbs_adr_i[30] wbs_adr_i[31] wbs_adr_i[3] wbs_adr_i[4] wbs_adr_i[5] wbs_adr_i[6]
+ wbs_adr_i[7] wbs_adr_i[8] wbs_adr_i[9] wbs_cyc_i wbs_dat_i[0] wbs_dat_i[10] wbs_dat_i[11]
+ wbs_dat_i[12] wbs_dat_i[13] wbs_dat_i[14] wbs_dat_i[15] wbs_dat_i[16] wbs_dat_i[17]
+ wbs_dat_i[18] wbs_dat_i[19] wbs_dat_i[1] wbs_dat_i[20] wbs_dat_i[21] wbs_dat_i[22]
+ wbs_dat_i[23] wbs_dat_i[24] wbs_dat_i[25] wbs_dat_i[26] wbs_dat_i[27] wbs_dat_i[28]
+ wbs_dat_i[29] wbs_dat_i[2] wbs_dat_i[30] wbs_dat_i[31] wbs_dat_i[3] wbs_dat_i[4]
+ wbs_dat_i[5] wbs_dat_i[6] wbs_dat_i[7] wbs_dat_i[8] wbs_dat_i[9] wbs_dat_o[0] wbs_dat_o[10]
+ wbs_dat_o[11] wbs_dat_o[12] wbs_dat_o[13] wbs_dat_o[14] wbs_dat_o[15] wbs_dat_o[16]
+ wbs_dat_o[17] wbs_dat_o[18] wbs_dat_o[19] wbs_dat_o[1] wbs_dat_o[20] wbs_dat_o[21]
+ wbs_dat_o[22] wbs_dat_o[23] wbs_dat_o[24] wbs_dat_o[25] wbs_dat_o[26] wbs_dat_o[27]
+ wbs_dat_o[28] wbs_dat_o[29] wbs_dat_o[2] wbs_dat_o[30] wbs_dat_o[31] wbs_dat_o[3]
+ wbs_dat_o[4] wbs_dat_o[5] wbs_dat_o[6] wbs_dat_o[7] wbs_dat_o[8] wbs_dat_o[9] wbs_sel_i[0]
+ wbs_sel_i[1] wbs_sel_i[2] wbs_sel_i[3] wbs_stb_i wbs_we_i
XFILLER_95_851 vdd vss gf180mcu_fd_sc_mcu7t5v0__fill_1
XFILLER_82_534 vdd vss gf180mcu_fd_sc_mcu7t5v0__fillcap_64
XFILLER_27_428 vdd vss gf180mcu_fd_sc_mcu7t5v0__fillcap_64
XFILLER_149_1841 vdd vss gf180mcu_fd_sc_mcu7t5v0__fillcap_4
XFILLER_54_247 vdd vss gf180mcu_fd_sc_mcu7t5v0__fill_1
XFILLER_3_1777 vdd vss gf180mcu_fd_sc_mcu7t5v0__fillcap_64
XFILLER_165_1131 vdd vss gf180mcu_fd_sc_mcu7t5v0__fillcap_4
XFILLER_1_1490 vdd vss gf180mcu_fd_sc_mcu7t5v0__fill_1
XFILLER_23_634 vdd vss gf180mcu_fd_sc_mcu7t5v0__fillcap_4
XFILLER_71_1935 vdd vss gf180mcu_fd_sc_mcu7t5v0__fill_2
XFILLER_52_1312 vdd vss gf180mcu_fd_sc_mcu7t5v0__fill_1
XFILLER_182_108 vdd vss gf180mcu_fd_sc_mcu7t5v0__fillcap_64
XFILLER_148_385 vdd vss gf180mcu_fd_sc_mcu7t5v0__fillcap_4
XFILLER_104_1457 vdd vss gf180mcu_fd_sc_mcu7t5v0__fillcap_64
XFILLER_178_1525 vdd vss gf180mcu_fd_sc_mcu7t5v0__fill_1
XFILLER_87_1419 vdd vss gf180mcu_fd_sc_mcu7t5v0__fill_1
XFILLER_164_889 vdd vss gf180mcu_fd_sc_mcu7t5v0__fillcap_64
XFILLER_156_1812 vdd vss gf180mcu_fd_sc_mcu7t5v0__fillcap_64
XFILLER_123_208 vdd vss gf180mcu_fd_sc_mcu7t5v0__fillcap_4
XFILLER_102_1170 vdd vss gf180mcu_fd_sc_mcu7t5v0__fill_1
XFILLER_11_1064 vdd vss gf180mcu_fd_sc_mcu7t5v0__fill_1
XFILLER_191_1703 vdd vss gf180mcu_fd_sc_mcu7t5v0__fill_1
XFILLER_172_1102 vdd vss gf180mcu_fd_sc_mcu7t5v0__fillcap_64
XFILLER_117_783 vdd vss gf180mcu_fd_sc_mcu7t5v0__fillcap_64
XFILLER_65_1706 vdd vss gf180mcu_fd_sc_mcu7t5v0__fillcap_64
XFILLER_7_7 vdd vss gf180mcu_fd_sc_mcu7t5v0__fillcap_64
XFILLER_2_527 vdd vss gf180mcu_fd_sc_mcu7t5v0__fillcap_4
XFILLER_105_989 vdd vss gf180mcu_fd_sc_mcu7t5v0__fillcap_4
XFILLER_89_144 vdd vss gf180mcu_fd_sc_mcu7t5v0__fillcap_64
XFILLER_78_818 vdd vss gf180mcu_fd_sc_mcu7t5v0__fillcap_64
XFILLER_137_1277 vdd vss gf180mcu_fd_sc_mcu7t5v0__fill_1
XFILLER_58_531 vdd vss gf180mcu_fd_sc_mcu7t5v0__fill_1
XFILLER_189_1632 vdd vss gf180mcu_fd_sc_mcu7t5v0__fill_1
XFILLER_115_1564 vdd vss gf180mcu_fd_sc_mcu7t5v0__fillcap_64
XTAP_3213 vdd vss gf180mcu_fd_sc_mcu7t5v0__filltie
XTAP_3202 vdd vss gf180mcu_fd_sc_mcu7t5v0__filltie
XFILLER_85_350 vdd vss gf180mcu_fd_sc_mcu7t5v0__fillcap_4
XFILLER_19_918 vdd vss gf180mcu_fd_sc_mcu7t5v0__fillcap_4
XTAP_3246 vdd vss gf180mcu_fd_sc_mcu7t5v0__filltie
XTAP_3235 vdd vss gf180mcu_fd_sc_mcu7t5v0__filltie
XTAP_3224 vdd vss gf180mcu_fd_sc_mcu7t5v0__filltie
XTAP_2501 vdd vss gf180mcu_fd_sc_mcu7t5v0__filltie
XTAP_3279 vdd vss gf180mcu_fd_sc_mcu7t5v0__filltie
XTAP_3268 vdd vss gf180mcu_fd_sc_mcu7t5v0__filltie
XTAP_3257 vdd vss gf180mcu_fd_sc_mcu7t5v0__filltie
XTAP_2545 vdd vss gf180mcu_fd_sc_mcu7t5v0__filltie
XTAP_2534 vdd vss gf180mcu_fd_sc_mcu7t5v0__filltie
XTAP_2523 vdd vss gf180mcu_fd_sc_mcu7t5v0__filltie
XTAP_2512 vdd vss gf180mcu_fd_sc_mcu7t5v0__filltie
XFILLER_73_567 vdd vss gf180mcu_fd_sc_mcu7t5v0__fill_1
XTAP_1800 vdd vss gf180mcu_fd_sc_mcu7t5v0__filltie
XFILLER_165_2 vdd vss gf180mcu_fd_sc_mcu7t5v0__fillcap_64
XTAP_2578 vdd vss gf180mcu_fd_sc_mcu7t5v0__filltie
XTAP_2567 vdd vss gf180mcu_fd_sc_mcu7t5v0__filltie
XTAP_2556 vdd vss gf180mcu_fd_sc_mcu7t5v0__filltie
XTAP_1833 vdd vss gf180mcu_fd_sc_mcu7t5v0__filltie
XTAP_1822 vdd vss gf180mcu_fd_sc_mcu7t5v0__filltie
XTAP_1811 vdd vss gf180mcu_fd_sc_mcu7t5v0__filltie
XTAP_2589 vdd vss gf180mcu_fd_sc_mcu7t5v0__filltie
XTAP_1844 vdd vss gf180mcu_fd_sc_mcu7t5v0__filltie
XTAP_1866 vdd vss gf180mcu_fd_sc_mcu7t5v0__filltie
XTAP_1855 vdd vss gf180mcu_fd_sc_mcu7t5v0__filltie
XFILLER_158_105 vdd vss gf180mcu_fd_sc_mcu7t5v0__fill_1
XFILLER_144_1237 vdd vss gf180mcu_fd_sc_mcu7t5v0__fillcap_4
XTAP_1899 vdd vss gf180mcu_fd_sc_mcu7t5v0__filltie
XTAP_1888 vdd vss gf180mcu_fd_sc_mcu7t5v0__filltie
XTAP_1877 vdd vss gf180mcu_fd_sc_mcu7t5v0__filltie
XFILLER_13_144 vdd vss gf180mcu_fd_sc_mcu7t5v0__fillcap_64
XFILLER_74_1592 vdd vss gf180mcu_fd_sc_mcu7t5v0__fillcap_4
XFILLER_9_137 vdd vss gf180mcu_fd_sc_mcu7t5v0__fillcap_4
XFILLER_6_811 vdd vss gf180mcu_fd_sc_mcu7t5v0__fillcap_4
XFILLER_13_1841 vdd vss gf180mcu_fd_sc_mcu7t5v0__fillcap_4
XFILLER_181_141 vdd vss gf180mcu_fd_sc_mcu7t5v0__fill_1
XFILLER_170_815 vdd vss gf180mcu_fd_sc_mcu7t5v0__fill_1
XFILLER_115_709 vdd vss gf180mcu_fd_sc_mcu7t5v0__fill_1
XFILLER_5_354 vdd vss gf180mcu_fd_sc_mcu7t5v0__fill_1
XFILLER_48_1915 vdd vss gf180mcu_fd_sc_mcu7t5v0__fillcap_16
XFILLER_48_1937 vdd vss gf180mcu_fd_sc_mcu7t5v0__fill_1
XFILLER_170_1809 vdd vss gf180mcu_fd_sc_mcu7t5v0__fill_1
XFILLER_155_1344 vdd vss gf180mcu_fd_sc_mcu7t5v0__fillcap_4
XFILLER_9_1419 vdd vss gf180mcu_fd_sc_mcu7t5v0__fill_1
XFILLER_77_851 vdd vss gf180mcu_fd_sc_mcu7t5v0__fill_1
XFILLER_27_1060 vdd vss gf180mcu_fd_sc_mcu7t5v0__fillcap_4
XFILLER_42_1525 vdd vss gf180mcu_fd_sc_mcu7t5v0__fill_1
XTAP_5182 vdd vss gf180mcu_fd_sc_mcu7t5v0__filltie
XTAP_5171 vdd vss gf180mcu_fd_sc_mcu7t5v0__filltie
XTAP_5160 vdd vss gf180mcu_fd_sc_mcu7t5v0__filltie
XFILLER_67_70 vdd vss gf180mcu_fd_sc_mcu7t5v0__fill_1
XTAP_5193 vdd vss gf180mcu_fd_sc_mcu7t5v0__filltie
XTAP_4470 vdd vss gf180mcu_fd_sc_mcu7t5v0__filltie
XFILLER_64_534 vdd vss gf180mcu_fd_sc_mcu7t5v0__fillcap_64
XFILLER_20_1812 vdd vss gf180mcu_fd_sc_mcu7t5v0__fillcap_64
XFILLER_184_1028 vdd vss gf180mcu_fd_sc_mcu7t5v0__fill_1
XFILLER_168_1738 vdd vss gf180mcu_fd_sc_mcu7t5v0__fill_1
XTAP_4492 vdd vss gf180mcu_fd_sc_mcu7t5v0__filltie
XTAP_4481 vdd vss gf180mcu_fd_sc_mcu7t5v0__filltie
XFILLER_36_247 vdd vss gf180mcu_fd_sc_mcu7t5v0__fill_1
XTAP_3791 vdd vss gf180mcu_fd_sc_mcu7t5v0__filltie
XTAP_3780 vdd vss gf180mcu_fd_sc_mcu7t5v0__filltie
XFILLER_94_1935 vdd vss gf180mcu_fd_sc_mcu7t5v0__fill_2
XFILLER_181_1927 vdd vss gf180mcu_fd_sc_mcu7t5v0__fillcap_4
XFILLER_181_1916 vdd vss gf180mcu_fd_sc_mcu7t5v0__fill_1
XFILLER_162_1315 vdd vss gf180mcu_fd_sc_mcu7t5v0__fillcap_64
XFILLER_60_740 vdd vss gf180mcu_fd_sc_mcu7t5v0__fillcap_4
XFILLER_55_1919 vdd vss gf180mcu_fd_sc_mcu7t5v0__fillcap_8
XFILLER_177_425 vdd vss gf180mcu_fd_sc_mcu7t5v0__fill_1
XFILLER_92_1670 vdd vss gf180mcu_fd_sc_mcu7t5v0__fillcap_64
XFILLER_71_1209 vdd vss gf180mcu_fd_sc_mcu7t5v0__fillcap_64
XFILLER_53_1632 vdd vss gf180mcu_fd_sc_mcu7t5v0__fill_1
XFILLER_18_1741 vdd vss gf180mcu_fd_sc_mcu7t5v0__fillcap_64
XFILLER_193_918 vdd vss gf180mcu_fd_sc_mcu7t5v0__fillcap_4
XFILLER_80_2 vdd vss gf180mcu_fd_sc_mcu7t5v0__fillcap_32
XFILLER_34_1031 vdd vss gf180mcu_fd_sc_mcu7t5v0__fillcap_64
XFILLER_164_108 vdd vss gf180mcu_fd_sc_mcu7t5v0__fillcap_64
XFILLER_179_1845 vdd vss gf180mcu_fd_sc_mcu7t5v0__fill_1
XFILLER_121_1067 vdd vss gf180mcu_fd_sc_mcu7t5v0__fillcap_64
XFILLER_105_1777 vdd vss gf180mcu_fd_sc_mcu7t5v0__fillcap_64
XFILLER_195_1157 vdd vss gf180mcu_fd_sc_mcu7t5v0__fillcap_8
XFILLER_146_889 vdd vss gf180mcu_fd_sc_mcu7t5v0__fillcap_64
XFILLER_105_208 vdd vss gf180mcu_fd_sc_mcu7t5v0__fillcap_4
XFILLER_103_1490 vdd vss gf180mcu_fd_sc_mcu7t5v0__fill_1
XFILLER_69_1138 vdd vss gf180mcu_fd_sc_mcu7t5v0__fillcap_64
XFILLER_160_314 vdd vss gf180mcu_fd_sc_mcu7t5v0__fillcap_4
XFILLER_173_1422 vdd vss gf180mcu_fd_sc_mcu7t5v0__fillcap_64
XFILLER_101_425 vdd vss gf180mcu_fd_sc_mcu7t5v0__fill_1
XFILLER_80_1095 vdd vss gf180mcu_fd_sc_mcu7t5v0__fillcap_4
XFILLER_67_350 vdd vss gf180mcu_fd_sc_mcu7t5v0__fillcap_4
XFILLER_186_1805 vdd vss gf180mcu_fd_sc_mcu7t5v0__fillcap_4
XFILLER_110_1450 vdd vss gf180mcu_fd_sc_mcu7t5v0__fillcap_4
XFILLER_83_854 vdd vss gf180mcu_fd_sc_mcu7t5v0__fillcap_64
XFILLER_55_567 vdd vss gf180mcu_fd_sc_mcu7t5v0__fill_1
XFILLER_58_1521 vdd vss gf180mcu_fd_sc_mcu7t5v0__fillcap_4
XTAP_1107 vdd vss gf180mcu_fd_sc_mcu7t5v0__filltie
XTAP_1118 vdd vss gf180mcu_fd_sc_mcu7t5v0__filltie
XTAP_1129 vdd vss gf180mcu_fd_sc_mcu7t5v0__filltie
XFILLER_145_1557 vdd vss gf180mcu_fd_sc_mcu7t5v0__fillcap_4
XFILLER_50_250 vdd vss gf180mcu_fd_sc_mcu7t5v0__fillcap_64
XFILLER_195_244 vdd vss gf180mcu_fd_sc_mcu7t5v0__fill_1
XFILLER_195_277 vdd vss gf180mcu_fd_sc_mcu7t5v0__fill_2
XFILLER_195_288 vdd vss gf180mcu_fd_sc_mcu7t5v0__fill_1
XFILLER_183_428 vdd vss gf180mcu_fd_sc_mcu7t5v0__fillcap_64
XFILLER_17_1273 vdd vss gf180mcu_fd_sc_mcu7t5v0__fillcap_4
XFILLER_32_1738 vdd vss gf180mcu_fd_sc_mcu7t5v0__fill_1
XFILLER_163_141 vdd vss gf180mcu_fd_sc_mcu7t5v0__fill_1
XFILLER_152_815 vdd vss gf180mcu_fd_sc_mcu7t5v0__fill_1
XFILLER_3_847 vdd vss gf180mcu_fd_sc_mcu7t5v0__fillcap_4
XFILLER_152_1528 vdd vss gf180mcu_fd_sc_mcu7t5v0__fillcap_64
XFILLER_82_1883 vdd vss gf180mcu_fd_sc_mcu7t5v0__fillcap_32
XFILLER_150_1241 vdd vss gf180mcu_fd_sc_mcu7t5v0__fill_1
XFILLER_59_851 vdd vss gf180mcu_fd_sc_mcu7t5v0__fill_1
XFILLER_24_1244 vdd vss gf180mcu_fd_sc_mcu7t5v0__fillcap_64
XFILLER_43_1845 vdd vss gf180mcu_fd_sc_mcu7t5v0__fill_1
XFILLER_98_1312 vdd vss gf180mcu_fd_sc_mcu7t5v0__fill_1
XTAP_3021 vdd vss gf180mcu_fd_sc_mcu7t5v0__filltie
XTAP_3010 vdd vss gf180mcu_fd_sc_mcu7t5v0__filltie
XFILLER_46_534 vdd vss gf180mcu_fd_sc_mcu7t5v0__fillcap_64
XTAP_3054 vdd vss gf180mcu_fd_sc_mcu7t5v0__filltie
XTAP_3043 vdd vss gf180mcu_fd_sc_mcu7t5v0__filltie
XTAP_3032 vdd vss gf180mcu_fd_sc_mcu7t5v0__filltie
XTAP_2320 vdd vss gf180mcu_fd_sc_mcu7t5v0__filltie
XFILLER_18_247 vdd vss gf180mcu_fd_sc_mcu7t5v0__fill_1
XFILLER_37_73 vdd vss gf180mcu_fd_sc_mcu7t5v0__fillcap_64
XFILLER_185_1348 vdd vss gf180mcu_fd_sc_mcu7t5v0__fill_1
XTAP_3098 vdd vss gf180mcu_fd_sc_mcu7t5v0__filltie
XTAP_3065 vdd vss gf180mcu_fd_sc_mcu7t5v0__filltie
XTAP_3087 vdd vss gf180mcu_fd_sc_mcu7t5v0__filltie
XTAP_3076 vdd vss gf180mcu_fd_sc_mcu7t5v0__filltie
XTAP_2353 vdd vss gf180mcu_fd_sc_mcu7t5v0__filltie
XTAP_2342 vdd vss gf180mcu_fd_sc_mcu7t5v0__filltie
XTAP_2331 vdd vss gf180mcu_fd_sc_mcu7t5v0__filltie
XFILLER_148_1170 vdd vss gf180mcu_fd_sc_mcu7t5v0__fill_1
XTAP_2386 vdd vss gf180mcu_fd_sc_mcu7t5v0__filltie
XTAP_2375 vdd vss gf180mcu_fd_sc_mcu7t5v0__filltie
XTAP_2364 vdd vss gf180mcu_fd_sc_mcu7t5v0__filltie
XFILLER_2_1095 vdd vss gf180mcu_fd_sc_mcu7t5v0__fillcap_4
XFILLER_42_740 vdd vss gf180mcu_fd_sc_mcu7t5v0__fillcap_4
XTAP_1641 vdd vss gf180mcu_fd_sc_mcu7t5v0__filltie
XTAP_1630 vdd vss gf180mcu_fd_sc_mcu7t5v0__filltie
XFILLER_187_712 vdd vss gf180mcu_fd_sc_mcu7t5v0__fillcap_64
XFILLER_163_1635 vdd vss gf180mcu_fd_sc_mcu7t5v0__fillcap_64
XFILLER_159_425 vdd vss gf180mcu_fd_sc_mcu7t5v0__fill_1
XTAP_2397 vdd vss gf180mcu_fd_sc_mcu7t5v0__filltie
XFILLER_57_1064 vdd vss gf180mcu_fd_sc_mcu7t5v0__fill_1
XTAP_1652 vdd vss gf180mcu_fd_sc_mcu7t5v0__filltie
XTAP_1663 vdd vss gf180mcu_fd_sc_mcu7t5v0__filltie
XTAP_1674 vdd vss gf180mcu_fd_sc_mcu7t5v0__filltie
XTAP_1685 vdd vss gf180mcu_fd_sc_mcu7t5v0__filltie
XFILLER_175_918 vdd vss gf180mcu_fd_sc_mcu7t5v0__fillcap_4
XFILLER_30_957 vdd vss gf180mcu_fd_sc_mcu7t5v0__fill_1
XFILLER_41_283 vdd vss gf180mcu_fd_sc_mcu7t5v0__fill_1
XTAP_1696 vdd vss gf180mcu_fd_sc_mcu7t5v0__filltie
XFILLER_50_1805 vdd vss gf180mcu_fd_sc_mcu7t5v0__fillcap_4
XFILLER_146_108 vdd vss gf180mcu_fd_sc_mcu7t5v0__fillcap_64
XFILLER_35_1351 vdd vss gf180mcu_fd_sc_mcu7t5v0__fillcap_64
XFILLER_128_889 vdd vss gf180mcu_fd_sc_mcu7t5v0__fillcap_64
XFILLER_192_1308 vdd vss gf180mcu_fd_sc_mcu7t5v0__fillcap_4
XFILLER_142_314 vdd vss gf180mcu_fd_sc_mcu7t5v0__fillcap_4
XFILLER_100_1663 vdd vss gf180mcu_fd_sc_mcu7t5v0__fillcap_4
XFILLER_48_1734 vdd vss gf180mcu_fd_sc_mcu7t5v0__fillcap_4
XFILLER_111_712 vdd vss gf180mcu_fd_sc_mcu7t5v0__fillcap_64
XFILLER_64_1024 vdd vss gf180mcu_fd_sc_mcu7t5v0__fillcap_4
XFILLER_61_1912 vdd vss gf180mcu_fd_sc_mcu7t5v0__fillcap_4
XFILLER_96_456 vdd vss gf180mcu_fd_sc_mcu7t5v0__fillcap_4
XFILLER_49_350 vdd vss gf180mcu_fd_sc_mcu7t5v0__fillcap_4
XFILLER_65_854 vdd vss gf180mcu_fd_sc_mcu7t5v0__fillcap_64
XFILLER_37_567 vdd vss gf180mcu_fd_sc_mcu7t5v0__fill_1
XFILLER_111_1770 vdd vss gf180mcu_fd_sc_mcu7t5v0__fillcap_4
XFILLER_92_673 vdd vss gf180mcu_fd_sc_mcu7t5v0__fill_1
XFILLER_59_1841 vdd vss gf180mcu_fd_sc_mcu7t5v0__fillcap_4
XFILLER_4_1883 vdd vss gf180mcu_fd_sc_mcu7t5v0__fillcap_32
XFILLER_0_1747 vdd vss gf180mcu_fd_sc_mcu7t5v0__fill_2
XFILLER_0_1714 vdd vss gf180mcu_fd_sc_mcu7t5v0__fill_1
XFILLER_75_1131 vdd vss gf180mcu_fd_sc_mcu7t5v0__fillcap_4
XFILLER_0_1769 vdd vss gf180mcu_fd_sc_mcu7t5v0__fillcap_16
XFILLER_32_250 vdd vss gf180mcu_fd_sc_mcu7t5v0__fillcap_64
XFILLER_165_428 vdd vss gf180mcu_fd_sc_mcu7t5v0__fillcap_64
XFILLER_20_456 vdd vss gf180mcu_fd_sc_mcu7t5v0__fillcap_4
XFILLER_192_247 vdd vss gf180mcu_fd_sc_mcu7t5v0__fill_1
XFILLER_140_1454 vdd vss gf180mcu_fd_sc_mcu7t5v0__fill_1
XFILLER_14_1457 vdd vss gf180mcu_fd_sc_mcu7t5v0__fillcap_64
XFILLER_145_141 vdd vss gf180mcu_fd_sc_mcu7t5v0__fill_1
XFILLER_134_815 vdd vss gf180mcu_fd_sc_mcu7t5v0__fill_1
XFILLER_88_1525 vdd vss gf180mcu_fd_sc_mcu7t5v0__fill_1
XFILLER_161_634 vdd vss gf180mcu_fd_sc_mcu7t5v0__fillcap_4
XFILLER_66_1812 vdd vss gf180mcu_fd_sc_mcu7t5v0__fillcap_64
XFILLER_12_1170 vdd vss gf180mcu_fd_sc_mcu7t5v0__fill_1
XFILLER_82_1102 vdd vss gf180mcu_fd_sc_mcu7t5v0__fillcap_64
XFILLER_118_1935 vdd vss gf180mcu_fd_sc_mcu7t5v0__fill_2
XFILLER_153_1848 vdd vss gf180mcu_fd_sc_mcu7t5v0__fillcap_64
XFILLER_138_1383 vdd vss gf180mcu_fd_sc_mcu7t5v0__fill_1
XFILLER_99_283 vdd vss gf180mcu_fd_sc_mcu7t5v0__fill_1
XFILLER_88_957 vdd vss gf180mcu_fd_sc_mcu7t5v0__fill_1
XFILLER_0_839 vdd vss gf180mcu_fd_sc_mcu7t5v0__fill_1
XFILLER_47_1277 vdd vss gf180mcu_fd_sc_mcu7t5v0__fill_1
XFILLER_116_1670 vdd vss gf180mcu_fd_sc_mcu7t5v0__fillcap_64
XFILLER_114_34 vdd vss gf180mcu_fd_sc_mcu7t5v0__fill_1
XFILLER_151_1561 vdd vss gf180mcu_fd_sc_mcu7t5v0__fill_1
XFILLER_99_1632 vdd vss gf180mcu_fd_sc_mcu7t5v0__fill_1
XFILLER_25_1564 vdd vss gf180mcu_fd_sc_mcu7t5v0__fillcap_64
XFILLER_28_534 vdd vss gf180mcu_fd_sc_mcu7t5v0__fillcap_64
XFILLER_167_1067 vdd vss gf180mcu_fd_sc_mcu7t5v0__fillcap_64
XFILLER_82_172 vdd vss gf180mcu_fd_sc_mcu7t5v0__fillcap_4
XFILLER_24_740 vdd vss gf180mcu_fd_sc_mcu7t5v0__fillcap_4
XFILLER_169_712 vdd vss gf180mcu_fd_sc_mcu7t5v0__fillcap_64
XFILLER_149_1490 vdd vss gf180mcu_fd_sc_mcu7t5v0__fill_1
XFILLER_90_37 vdd vss gf180mcu_fd_sc_mcu7t5v0__fillcap_64
XFILLER_157_918 vdd vss gf180mcu_fd_sc_mcu7t5v0__fillcap_4
XFILLER_70_389 vdd vss gf180mcu_fd_sc_mcu7t5v0__fill_1
XFILLER_54_1237 vdd vss gf180mcu_fd_sc_mcu7t5v0__fillcap_4
XFILLER_23_283 vdd vss gf180mcu_fd_sc_mcu7t5v0__fill_1
XFILLER_51_570 vdd vss gf180mcu_fd_sc_mcu7t5v0__fillcap_64
XFILLER_128_108 vdd vss gf180mcu_fd_sc_mcu7t5v0__fillcap_64
XFILLER_12_957 vdd vss gf180mcu_fd_sc_mcu7t5v0__fill_1
XFILLER_128_2 vdd vss gf180mcu_fd_sc_mcu7t5v0__fillcap_32
XFILLER_193_1628 vdd vss gf180mcu_fd_sc_mcu7t5v0__fillcap_4
XFILLER_124_314 vdd vss gf180mcu_fd_sc_mcu7t5v0__fillcap_4
XFILLER_104_1095 vdd vss gf180mcu_fd_sc_mcu7t5v0__fillcap_4
XFILLER_151_144 vdd vss gf180mcu_fd_sc_mcu7t5v0__fillcap_64
XFILLER_156_1450 vdd vss gf180mcu_fd_sc_mcu7t5v0__fillcap_4
XFILLER_140_818 vdd vss gf180mcu_fd_sc_mcu7t5v0__fillcap_64
XFILLER_80_1809 vdd vss gf180mcu_fd_sc_mcu7t5v0__fill_1
XFILLER_65_1344 vdd vss gf180mcu_fd_sc_mcu7t5v0__fillcap_4
XFILLER_171_1937 vdd vss gf180mcu_fd_sc_mcu7t5v0__fill_1
XFILLER_120_531 vdd vss gf180mcu_fd_sc_mcu7t5v0__fill_1
XFILLER_2_176 vdd vss gf180mcu_fd_sc_mcu7t5v0__fill_1
XFILLER_78_456 vdd vss gf180mcu_fd_sc_mcu7t5v0__fillcap_4
XFILLER_4_1102 vdd vss gf180mcu_fd_sc_mcu7t5v0__fillcap_64
XFILLER_171_73 vdd vss gf180mcu_fd_sc_mcu7t5v0__fillcap_64
XFILLER_130_1667 vdd vss gf180mcu_fd_sc_mcu7t5v0__fill_1
XFILLER_47_854 vdd vss gf180mcu_fd_sc_mcu7t5v0__fillcap_64
XFILLER_78_1738 vdd vss gf180mcu_fd_sc_mcu7t5v0__fill_1
XFILLER_74_673 vdd vss gf180mcu_fd_sc_mcu7t5v0__fill_1
XFILLER_19_567 vdd vss gf180mcu_fd_sc_mcu7t5v0__fill_1
XFILLER_94_1028 vdd vss gf180mcu_fd_sc_mcu7t5v0__fill_1
XTAP_2161 vdd vss gf180mcu_fd_sc_mcu7t5v0__filltie
XTAP_2150 vdd vss gf180mcu_fd_sc_mcu7t5v0__filltie
XFILLER_91_1916 vdd vss gf180mcu_fd_sc_mcu7t5v0__fill_1
XFILLER_72_1315 vdd vss gf180mcu_fd_sc_mcu7t5v0__fillcap_64
XTAP_2194 vdd vss gf180mcu_fd_sc_mcu7t5v0__filltie
XTAP_2183 vdd vss gf180mcu_fd_sc_mcu7t5v0__filltie
XTAP_2172 vdd vss gf180mcu_fd_sc_mcu7t5v0__filltie
XTAP_1460 vdd vss gf180mcu_fd_sc_mcu7t5v0__filltie
XFILLER_14_250 vdd vss gf180mcu_fd_sc_mcu7t5v0__fillcap_64
XTAP_1471 vdd vss gf180mcu_fd_sc_mcu7t5v0__filltie
XTAP_1482 vdd vss gf180mcu_fd_sc_mcu7t5v0__filltie
XTAP_1493 vdd vss gf180mcu_fd_sc_mcu7t5v0__filltie
XFILLER_128_1596 vdd vss gf180mcu_fd_sc_mcu7t5v0__fill_1
XFILLER_9_66 vdd vss gf180mcu_fd_sc_mcu7t5v0__fillcap_4
XFILLER_147_428 vdd vss gf180mcu_fd_sc_mcu7t5v0__fillcap_64
XFILLER_106_1883 vdd vss gf180mcu_fd_sc_mcu7t5v0__fillcap_32
XFILLER_174_247 vdd vss gf180mcu_fd_sc_mcu7t5v0__fill_1
XFILLER_141_1774 vdd vss gf180mcu_fd_sc_mcu7t5v0__fill_1
XFILLER_127_141 vdd vss gf180mcu_fd_sc_mcu7t5v0__fill_1
XFILLER_122_1173 vdd vss gf180mcu_fd_sc_mcu7t5v0__fillcap_64
XFILLER_116_815 vdd vss gf180mcu_fd_sc_mcu7t5v0__fill_1
XFILLER_89_1845 vdd vss gf180mcu_fd_sc_mcu7t5v0__fill_1
XFILLER_15_1777 vdd vss gf180mcu_fd_sc_mcu7t5v0__fillcap_64
XFILLER_143_634 vdd vss gf180mcu_fd_sc_mcu7t5v0__fillcap_4
XFILLER_6_460 vdd vss gf180mcu_fd_sc_mcu7t5v0__fill_1
XFILLER_13_1490 vdd vss gf180mcu_fd_sc_mcu7t5v0__fill_1
XFILLER_31_1067 vdd vss gf180mcu_fd_sc_mcu7t5v0__fillcap_64
XFILLER_83_1422 vdd vss gf180mcu_fd_sc_mcu7t5v0__fillcap_64
XFILLER_43_2 vdd vss gf180mcu_fd_sc_mcu7t5v0__fillcap_64
XFILLER_97_776 vdd vss gf180mcu_fd_sc_mcu7t5v0__fillcap_4
XFILLER_133_1280 vdd vss gf180mcu_fd_sc_mcu7t5v0__fillcap_64
XFILLER_96_1805 vdd vss gf180mcu_fd_sc_mcu7t5v0__fillcap_4
XFILLER_2_1809 vdd vss gf180mcu_fd_sc_mcu7t5v0__fill_1
XFILLER_93_993 vdd vss gf180mcu_fd_sc_mcu7t5v0__fill_1
XFILLER_20_1450 vdd vss gf180mcu_fd_sc_mcu7t5v0__fillcap_4
XFILLER_64_172 vdd vss gf180mcu_fd_sc_mcu7t5v0__fillcap_4
XFILLER_80_676 vdd vss gf180mcu_fd_sc_mcu7t5v0__fillcap_64
XFILLER_0_1577 vdd vss gf180mcu_fd_sc_mcu7t5v0__fillcap_8
XFILLER_178_531 vdd vss gf180mcu_fd_sc_mcu7t5v0__fill_1
XFILLER_146_1663 vdd vss gf180mcu_fd_sc_mcu7t5v0__fillcap_4
XFILLER_55_1557 vdd vss gf180mcu_fd_sc_mcu7t5v0__fillcap_4
XFILLER_52_389 vdd vss gf180mcu_fd_sc_mcu7t5v0__fill_1
XFILLER_33_570 vdd vss gf180mcu_fd_sc_mcu7t5v0__fillcap_64
XFILLER_139_918 vdd vss gf180mcu_fd_sc_mcu7t5v0__fillcap_4
XFILLER_21_776 vdd vss gf180mcu_fd_sc_mcu7t5v0__fillcap_4
XFILLER_193_567 vdd vss gf180mcu_fd_sc_mcu7t5v0__fill_1
XFILLER_101_1202 vdd vss gf180mcu_fd_sc_mcu7t5v0__fillcap_4
XFILLER_194_1937 vdd vss gf180mcu_fd_sc_mcu7t5v0__fill_1
XFILLER_194_1915 vdd vss gf180mcu_fd_sc_mcu7t5v0__fillcap_16
XFILLER_106_314 vdd vss gf180mcu_fd_sc_mcu7t5v0__fillcap_4
XFILLER_157_1770 vdd vss gf180mcu_fd_sc_mcu7t5v0__fillcap_4
XFILLER_133_144 vdd vss gf180mcu_fd_sc_mcu7t5v0__fillcap_64
XFILLER_122_818 vdd vss gf180mcu_fd_sc_mcu7t5v0__fillcap_64
XTAP_5704 vdd vss gf180mcu_fd_sc_mcu7t5v0__filltie
XFILLER_173_1060 vdd vss gf180mcu_fd_sc_mcu7t5v0__fillcap_4
XFILLER_102_531 vdd vss gf180mcu_fd_sc_mcu7t5v0__fill_1
XFILLER_62_1528 vdd vss gf180mcu_fd_sc_mcu7t5v0__fillcap_64
XFILLER_0_636 vdd vss gf180mcu_fd_sc_mcu7t5v0__fill_1
XTAP_5737 vdd vss gf180mcu_fd_sc_mcu7t5v0__filltie
XTAP_5726 vdd vss gf180mcu_fd_sc_mcu7t5v0__filltie
XTAP_5715 vdd vss gf180mcu_fd_sc_mcu7t5v0__filltie
XFILLER_125_66 vdd vss gf180mcu_fd_sc_mcu7t5v0__fillcap_4
XFILLER_87_286 vdd vss gf180mcu_fd_sc_mcu7t5v0__fillcap_64
XFILLER_60_1241 vdd vss gf180mcu_fd_sc_mcu7t5v0__fill_1
XFILLER_5_1422 vdd vss gf180mcu_fd_sc_mcu7t5v0__fillcap_64
XFILLER_134_1099 vdd vss gf180mcu_fd_sc_mcu7t5v0__fill_1
XFILLER_84_960 vdd vss gf180mcu_fd_sc_mcu7t5v0__fillcap_64
XFILLER_29_854 vdd vss gf180mcu_fd_sc_mcu7t5v0__fillcap_64
XFILLER_112_1386 vdd vss gf180mcu_fd_sc_mcu7t5v0__fillcap_64
XFILLER_56_673 vdd vss gf180mcu_fd_sc_mcu7t5v0__fill_1
XFILLER_186_1454 vdd vss gf180mcu_fd_sc_mcu7t5v0__fill_1
XFILLER_95_1348 vdd vss gf180mcu_fd_sc_mcu7t5v0__fill_1
XFILLER_83_492 vdd vss gf180mcu_fd_sc_mcu7t5v0__fillcap_4
XFILLER_58_1170 vdd vss gf180mcu_fd_sc_mcu7t5v0__fill_1
XFILLER_180_1031 vdd vss gf180mcu_fd_sc_mcu7t5v0__fillcap_64
XFILLER_164_1741 vdd vss gf180mcu_fd_sc_mcu7t5v0__fillcap_64
XFILLER_125_1703 vdd vss gf180mcu_fd_sc_mcu7t5v0__fill_1
XFILLER_106_1102 vdd vss gf180mcu_fd_sc_mcu7t5v0__fillcap_64
XFILLER_73_1635 vdd vss gf180mcu_fd_sc_mcu7t5v0__fillcap_64
XFILLER_184_534 vdd vss gf180mcu_fd_sc_mcu7t5v0__fillcap_64
XFILLER_129_428 vdd vss gf180mcu_fd_sc_mcu7t5v0__fillcap_64
XFILLER_8_747 vdd vss gf180mcu_fd_sc_mcu7t5v0__fillcap_64
XFILLER_156_247 vdd vss gf180mcu_fd_sc_mcu7t5v0__fill_1
XFILLER_109_141 vdd vss gf180mcu_fd_sc_mcu7t5v0__fill_1
XFILLER_11_286 vdd vss gf180mcu_fd_sc_mcu7t5v0__fillcap_64
XFILLER_123_1493 vdd vss gf180mcu_fd_sc_mcu7t5v0__fillcap_64
XFILLER_7_279 vdd vss gf180mcu_fd_sc_mcu7t5v0__fillcap_4
XFILLER_180_740 vdd vss gf180mcu_fd_sc_mcu7t5v0__fillcap_4
XFILLER_125_634 vdd vss gf180mcu_fd_sc_mcu7t5v0__fillcap_4
XFILLER_10_1663 vdd vss gf180mcu_fd_sc_mcu7t5v0__fillcap_4
XFILLER_4_953 vdd vss gf180mcu_fd_sc_mcu7t5v0__fillcap_4
XTAP_507 vdd vss gf180mcu_fd_sc_mcu7t5v0__filltie
XTAP_529 vdd vss gf180mcu_fd_sc_mcu7t5v0__filltie
XTAP_518 vdd vss gf180mcu_fd_sc_mcu7t5v0__filltie
XFILLER_3_496 vdd vss gf180mcu_fd_sc_mcu7t5v0__fill_1
XFILLER_136_1876 vdd vss gf180mcu_fd_sc_mcu7t5v0__fillcap_4
XFILLER_121_851 vdd vss gf180mcu_fd_sc_mcu7t5v0__fill_1
XFILLER_79_776 vdd vss gf180mcu_fd_sc_mcu7t5v0__fillcap_4
XFILLER_152_1166 vdd vss gf180mcu_fd_sc_mcu7t5v0__fillcap_4
XFILLER_93_212 vdd vss gf180mcu_fd_sc_mcu7t5v0__fill_1
XFILLER_75_993 vdd vss gf180mcu_fd_sc_mcu7t5v0__fill_1
XFILLER_21_1770 vdd vss gf180mcu_fd_sc_mcu7t5v0__fillcap_4
XFILLER_46_172 vdd vss gf180mcu_fd_sc_mcu7t5v0__fillcap_4
XFILLER_62_676 vdd vss gf180mcu_fd_sc_mcu7t5v0__fillcap_64
XFILLER_15_570 vdd vss gf180mcu_fd_sc_mcu7t5v0__fillcap_64
XFILLER_34_389 vdd vss gf180mcu_fd_sc_mcu7t5v0__fill_1
XFILLER_187_350 vdd vss gf180mcu_fd_sc_mcu7t5v0__fillcap_4
XFILLER_163_1273 vdd vss gf180mcu_fd_sc_mcu7t5v0__fillcap_4
XTAP_1290 vdd vss gf180mcu_fd_sc_mcu7t5v0__filltie
XFILLER_104_1809 vdd vss gf180mcu_fd_sc_mcu7t5v0__fill_1
XFILLER_175_567 vdd vss gf180mcu_fd_sc_mcu7t5v0__fill_1
XFILLER_50_1454 vdd vss gf180mcu_fd_sc_mcu7t5v0__fill_1
XFILLER_102_1599 vdd vss gf180mcu_fd_sc_mcu7t5v0__fillcap_64
XFILLER_7_780 vdd vss gf180mcu_fd_sc_mcu7t5v0__fill_1
XFILLER_176_1667 vdd vss gf180mcu_fd_sc_mcu7t5v0__fill_1
XFILLER_170_250 vdd vss gf180mcu_fd_sc_mcu7t5v0__fillcap_64
XFILLER_115_144 vdd vss gf180mcu_fd_sc_mcu7t5v0__fillcap_64
XFILLER_104_818 vdd vss gf180mcu_fd_sc_mcu7t5v0__fillcap_64
XFILLER_118_1028 vdd vss gf180mcu_fd_sc_mcu7t5v0__fill_1
XFILLER_28_1935 vdd vss gf180mcu_fd_sc_mcu7t5v0__fill_2
XFILLER_170_1244 vdd vss gf180mcu_fd_sc_mcu7t5v0__fillcap_64
XFILLER_115_1916 vdd vss gf180mcu_fd_sc_mcu7t5v0__fill_1
XFILLER_63_1848 vdd vss gf180mcu_fd_sc_mcu7t5v0__fillcap_64
XFILLER_48_1383 vdd vss gf180mcu_fd_sc_mcu7t5v0__fill_1
XFILLER_131_1206 vdd vss gf180mcu_fd_sc_mcu7t5v0__fill_1
XFILLER_111_350 vdd vss gf180mcu_fd_sc_mcu7t5v0__fillcap_4
XFILLER_69_286 vdd vss gf180mcu_fd_sc_mcu7t5v0__fillcap_64
XFILLER_26_1670 vdd vss gf180mcu_fd_sc_mcu7t5v0__fillcap_64
XTAP_3609 vdd vss gf180mcu_fd_sc_mcu7t5v0__filltie
XFILLER_61_1561 vdd vss gf180mcu_fd_sc_mcu7t5v0__fill_1
XTAP_2919 vdd vss gf180mcu_fd_sc_mcu7t5v0__filltie
XTAP_2908 vdd vss gf180mcu_fd_sc_mcu7t5v0__filltie