*SPEF "ieee 1481-1999"
*DESIGN "tiny_user_project"
*DATE "11:11:11 Fri 11 11, 1111"
*VENDOR "OpenRCX"
*PROGRAM "Parallel Extraction"
*VERSION "1.0"
*DESIGN_FLOW "NAME_SCOPE LOCAL" "PIN_CAP NONE"
*DIVIDER /
*DELIMITER :
*BUS_DELIMITER []
*T_UNIT 1 NS
*C_UNIT 1 PF
*R_UNIT 1 OHM
*L_UNIT 1 HENRY

*NAME_MAP
*1 io_in[0]
*2 io_in[10]
*3 io_in[11]
*4 io_in[12]
*5 io_in[13]
*6 io_in[14]
*7 io_in[15]
*8 io_in[16]
*9 io_in[17]
*10 io_in[18]
*11 io_in[19]
*12 io_in[1]
*13 io_in[20]
*14 io_in[21]
*15 io_in[22]
*16 io_in[23]
*17 io_in[24]
*18 io_in[25]
*19 io_in[26]
*20 io_in[27]
*21 io_in[28]
*22 io_in[29]
*23 io_in[2]
*24 io_in[30]
*25 io_in[31]
*26 io_in[32]
*27 io_in[33]
*28 io_in[34]
*29 io_in[35]
*30 io_in[36]
*31 io_in[37]
*32 io_in[3]
*33 io_in[4]
*34 io_in[5]
*35 io_in[6]
*36 io_in[7]
*37 io_in[8]
*38 io_in[9]
*39 net99
*40 net109
*41 net110
*42 net111
*43 net112
*44 net113
*45 net114
*46 net115
*47 net116
*48 net117
*49 net118
*50 net100
*51 net119
*52 net120
*53 net121
*54 net122
*55 net123
*56 net124
*57 net125
*58 net126
*59 net127
*60 net128
*61 net101
*62 net129
*63 net130
*64 net131
*65 net132
*66 net133
*67 net134
*68 net135
*69 net136
*70 net102
*71 net103
*72 net104
*73 net105
*74 net106
*75 net107
*76 net108
*77 net61
*78 net71
*79 net72
*80 net73
*81 net74
*82 net75
*83 net76
*84 net77
*85 net78
*86 net79
*87 net80
*88 net62
*89 net81
*90 net82
*91 net83
*92 net84
*93 net85
*94 net86
*95 net87
*96 net88
*97 net89
*98 net90
*99 net63
*100 net91
*101 net92
*102 net93
*103 net94
*104 net95
*105 net96
*106 net97
*107 net98
*108 net64
*109 net65
*110 net66
*111 net67
*112 net68
*113 net69
*114 net70
*115 la_data_in[0]
*116 la_data_in[10]
*117 la_data_in[11]
*118 la_data_in[12]
*119 la_data_in[13]
*120 la_data_in[14]
*121 la_data_in[15]
*122 la_data_in[16]
*123 la_data_in[17]
*124 la_data_in[18]
*125 la_data_in[19]
*126 la_data_in[1]
*127 la_data_in[20]
*128 la_data_in[21]
*129 la_data_in[22]
*130 la_data_in[23]
*131 la_data_in[24]
*132 la_data_in[25]
*133 la_data_in[26]
*134 la_data_in[27]
*135 la_data_in[28]
*136 la_data_in[29]
*137 la_data_in[2]
*138 la_data_in[30]
*139 la_data_in[31]
*140 la_data_in[32]
*141 la_data_in[33]
*142 la_data_in[34]
*143 la_data_in[35]
*144 la_data_in[36]
*145 la_data_in[37]
*146 la_data_in[38]
*147 la_data_in[39]
*148 la_data_in[3]
*149 la_data_in[40]
*150 la_data_in[41]
*151 la_data_in[42]
*152 la_data_in[43]
*153 la_data_in[44]
*154 la_data_in[45]
*155 la_data_in[46]
*156 la_data_in[47]
*157 la_data_in[48]
*158 la_data_in[49]
*159 la_data_in[4]
*160 la_data_in[50]
*161 la_data_in[51]
*162 la_data_in[52]
*163 la_data_in[53]
*164 la_data_in[54]
*165 la_data_in[55]
*166 la_data_in[56]
*167 la_data_in[57]
*168 la_data_in[58]
*169 la_data_in[59]
*170 la_data_in[5]
*171 la_data_in[60]
*172 la_data_in[61]
*173 la_data_in[62]
*174 la_data_in[63]
*175 la_data_in[6]
*176 la_data_in[7]
*177 la_data_in[8]
*178 la_data_in[9]
*179 net173
*180 net7
*181 net8
*182 net9
*183 net10
*184 net11
*185 net12
*186 net13
*187 net14
*188 net15
*189 net16
*190 net174
*191 net17
*192 net18
*193 net19
*194 net20
*195 net21
*196 net22
*197 net23
*198 net24
*199 net25
*200 net26
*201 net175
*202 net27
*203 net28
*204 net29
*205 net30
*206 net31
*207 net32
*208 net33
*209 net34
*210 net35
*211 net36
*212 net176
*213 net37
*214 net38
*215 net39
*216 net40
*217 net41
*218 net42
*219 net43
*220 net44
*221 net45
*222 net46
*223 net1
*224 net47
*225 net48
*226 net49
*227 net50
*228 net51
*229 net52
*230 net53
*231 net54
*232 net55
*233 net56
*234 net2
*235 net57
*236 net58
*237 net59
*238 net60
*239 net3
*240 net4
*241 net5
*242 net6
*243 la_oenb[0]
*244 la_oenb[10]
*245 la_oenb[11]
*246 la_oenb[12]
*247 la_oenb[13]
*248 la_oenb[14]
*249 la_oenb[15]
*250 la_oenb[16]
*251 la_oenb[17]
*252 la_oenb[18]
*253 la_oenb[19]
*254 la_oenb[1]
*255 la_oenb[20]
*256 la_oenb[21]
*257 la_oenb[22]
*258 la_oenb[23]
*259 la_oenb[24]
*260 la_oenb[25]
*261 la_oenb[26]
*262 la_oenb[27]
*263 la_oenb[28]
*264 la_oenb[29]
*265 la_oenb[2]
*266 la_oenb[30]
*267 la_oenb[31]
*268 la_oenb[32]
*269 la_oenb[33]
*270 la_oenb[34]
*271 la_oenb[35]
*272 la_oenb[36]
*273 la_oenb[37]
*274 la_oenb[38]
*275 la_oenb[39]
*276 la_oenb[3]
*277 la_oenb[40]
*278 la_oenb[41]
*279 la_oenb[42]
*280 la_oenb[43]
*281 la_oenb[44]
*282 la_oenb[45]
*283 la_oenb[46]
*284 la_oenb[47]
*285 la_oenb[48]
*286 la_oenb[49]
*287 la_oenb[4]
*288 la_oenb[50]
*289 la_oenb[51]
*290 la_oenb[52]
*291 la_oenb[53]
*292 la_oenb[54]
*293 la_oenb[55]
*294 la_oenb[56]
*295 la_oenb[57]
*296 la_oenb[58]
*297 la_oenb[59]
*298 la_oenb[5]
*299 la_oenb[60]
*300 la_oenb[61]
*301 la_oenb[62]
*302 la_oenb[63]
*303 la_oenb[6]
*304 la_oenb[7]
*305 la_oenb[8]
*306 la_oenb[9]
*307 user_clock2
*308 net137
*309 net138
*310 net139
*313 wb_clk_i
*314 wb_rst_i
*315 net140
*316 wbs_adr_i[0]
*317 wbs_adr_i[10]
*318 wbs_adr_i[11]
*319 wbs_adr_i[12]
*320 wbs_adr_i[13]
*321 wbs_adr_i[14]
*322 wbs_adr_i[15]
*323 wbs_adr_i[16]
*324 wbs_adr_i[17]
*325 wbs_adr_i[18]
*326 wbs_adr_i[19]
*327 wbs_adr_i[1]
*328 wbs_adr_i[20]
*329 wbs_adr_i[21]
*330 wbs_adr_i[22]
*331 wbs_adr_i[23]
*332 wbs_adr_i[24]
*333 wbs_adr_i[25]
*334 wbs_adr_i[26]
*335 wbs_adr_i[27]
*336 wbs_adr_i[28]
*337 wbs_adr_i[29]
*338 wbs_adr_i[2]
*339 wbs_adr_i[30]
*340 wbs_adr_i[31]
*341 wbs_adr_i[3]
*342 wbs_adr_i[4]
*343 wbs_adr_i[5]
*344 wbs_adr_i[6]
*345 wbs_adr_i[7]
*346 wbs_adr_i[8]
*347 wbs_adr_i[9]
*348 wbs_cyc_i
*349 wbs_dat_i[0]
*350 wbs_dat_i[10]
*351 wbs_dat_i[11]
*352 wbs_dat_i[12]
*353 wbs_dat_i[13]
*354 wbs_dat_i[14]
*355 wbs_dat_i[15]
*356 wbs_dat_i[16]
*357 wbs_dat_i[17]
*358 wbs_dat_i[18]
*359 wbs_dat_i[19]
*360 wbs_dat_i[1]
*361 wbs_dat_i[20]
*362 wbs_dat_i[21]
*363 wbs_dat_i[22]
*364 wbs_dat_i[23]
*365 wbs_dat_i[24]
*366 wbs_dat_i[25]
*367 wbs_dat_i[26]
*368 wbs_dat_i[27]
*369 wbs_dat_i[28]
*370 wbs_dat_i[29]
*371 wbs_dat_i[2]
*372 wbs_dat_i[30]
*373 wbs_dat_i[31]
*374 wbs_dat_i[3]
*375 wbs_dat_i[4]
*376 wbs_dat_i[5]
*377 wbs_dat_i[6]
*378 wbs_dat_i[7]
*379 wbs_dat_i[8]
*380 wbs_dat_i[9]
*381 net141
*382 net151
*383 net152
*384 net153
*385 net154
*386 net155
*387 net156
*388 net157
*389 net158
*390 net159
*391 net160
*392 net142
*393 net161
*394 net162
*395 net163
*396 net164
*397 net165
*398 net166
*399 net167
*400 net168
*401 net169
*402 net170
*403 net143
*404 net171
*405 net172
*406 net144
*407 net145
*408 net146
*409 net147
*410 net148
*411 net149
*412 net150
*413 wbs_sel_i[0]
*414 wbs_sel_i[1]
*415 wbs_sel_i[2]
*416 wbs_sel_i[3]
*417 wbs_stb_i
*418 wbs_we_i
*419 FILLER_0_1001
*420 FILLER_0_1009
*421 FILLER_0_1013
*422 FILLER_0_1017
*423 FILLER_0_1022
*424 FILLER_0_1030
*425 FILLER_0_1032
*426 FILLER_0_1037
*427 FILLER_0_1045
*428 FILLER_0_1049
*429 FILLER_0_1052
*430 FILLER_0_107
*431 FILLER_0_1084
*432 FILLER_0_1087
*433 FILLER_0_1092
*434 FILLER_0_1108
*435 FILLER_0_1110
*436 FILLER_0_1115
*437 FILLER_0_1119
*438 FILLER_0_112
*439 FILLER_0_1122
*440 FILLER_0_1126
*441 FILLER_0_1128
*442 FILLER_0_1133
*443 FILLER_0_114
*444 FILLER_0_1141
*445 FILLER_0_1145
*446 FILLER_0_1151
*447 FILLER_0_1157
*448 FILLER_0_1189
*449 FILLER_0_119
*450 FILLER_0_1192
*451 FILLER_0_1224
*452 FILLER_0_1227
*453 FILLER_0_1232
*454 FILLER_0_1248
*455 FILLER_0_1256
*456 FILLER_0_1262
*457 FILLER_0_1294
*458 FILLER_0_1297
*459 FILLER_0_1329
*460 FILLER_0_1332
*461 FILLER_0_1337
*462 FILLER_0_135
*463 FILLER_0_1353
*464 FILLER_0_1361
*465 FILLER_0_1367
*466 FILLER_0_139
*467 FILLER_0_1399
*468 FILLER_0_1402
*469 FILLER_0_1404
*470 FILLER_0_1409
*471 FILLER_0_142
*472 FILLER_0_1425
*473 FILLER_0_1433
*474 FILLER_0_1437
*475 FILLER_0_1445
*476 FILLER_0_1457
*477 FILLER_0_1465
*478 FILLER_0_1469
*479 FILLER_0_1472
*480 FILLER_0_1477
*481 FILLER_0_1493
*482 FILLER_0_15
*483 FILLER_0_150
*484 FILLER_0_1501
*485 FILLER_0_1507
*486 FILLER_0_1515
*487 FILLER_0_1523
*488 FILLER_0_1539
*489 FILLER_0_1542
*490 FILLER_0_1547
*491 FILLER_0_155
*492 FILLER_0_1563
*493 FILLER_0_1571
*494 FILLER_0_1577
*495 FILLER_0_1589
*496 FILLER_0_1605
*497 FILLER_0_1609
*498 FILLER_0_1612
*499 FILLER_0_1628
*500 FILLER_0_1632
*501 FILLER_0_1637
*502 FILLER_0_1647
*503 FILLER_0_1679
*504 FILLER_0_1682
*505 FILLER_0_171
*506 FILLER_0_1714
*507 FILLER_0_1717
*508 FILLER_0_1722
*509 FILLER_0_1730
*510 FILLER_0_1734
*511 FILLER_0_1739
*512 FILLER_0_1747
*513 FILLER_0_1749
*514 FILLER_0_1752
*515 FILLER_0_1760
*516 FILLER_0_1764
*517 FILLER_0_1769
*518 FILLER_0_177
*519 FILLER_0_1787
*520 FILLER_0_1795
*521 FILLER_0_1799
*522 FILLER_0_1805
*523 FILLER_0_1817
*524 FILLER_0_1819
*525 FILLER_0_1822
*526 FILLER_0_1838
*527 FILLER_0_1846
*528 FILLER_0_1848
*529 FILLER_0_185
*530 FILLER_0_1853
*531 FILLER_0_1857
*532 FILLER_0_1873
*533 FILLER_0_1877
*534 FILLER_0_1883
*535 FILLER_0_1887
*536 FILLER_0_1889
*537 FILLER_0_1892
*538 FILLER_0_1908
*539 FILLER_0_1912
*540 FILLER_0_1914
*541 FILLER_0_1919
*542 FILLER_0_1923
*543 FILLER_0_1927
*544 FILLER_0_1932
*545 FILLER_0_1936
*546 FILLER_0_2
*547 FILLER_0_201
*548 FILLER_0_209
*549 FILLER_0_212
*550 FILLER_0_23
*551 FILLER_0_244
*552 FILLER_0_247
*553 FILLER_0_279
*554 FILLER_0_282
*555 FILLER_0_31
*556 FILLER_0_314
*557 FILLER_0_317
*558 FILLER_0_333
*559 FILLER_0_341
*560 FILLER_0_347
*561 FILLER_0_349
*562 FILLER_0_352
*563 FILLER_0_360
*564 FILLER_0_365
*565 FILLER_0_37
*566 FILLER_0_373
*567 FILLER_0_377
*568 FILLER_0_383
*569 FILLER_0_387
*570 FILLER_0_395
*571 FILLER_0_401
*572 FILLER_0_417
*573 FILLER_0_419
*574 FILLER_0_422
*575 FILLER_0_426
*576 FILLER_0_431
*577 FILLER_0_439
*578 FILLER_0_443
*579 FILLER_0_449
*580 FILLER_0_453
*581 FILLER_0_457
*582 FILLER_0_473
*583 FILLER_0_479
*584 FILLER_0_487
*585 FILLER_0_489
*586 FILLER_0_492
*587 FILLER_0_497
*588 FILLER_0_513
*589 FILLER_0_521
*590 FILLER_0_527
*591 FILLER_0_559
*592 FILLER_0_562
*593 FILLER_0_567
*594 FILLER_0_583
*595 FILLER_0_587
*596 FILLER_0_593
*597 FILLER_0_597
*598 FILLER_0_613
*599 FILLER_0_621
*600 FILLER_0_629
*601 FILLER_0_632
*602 FILLER_0_636
*603 FILLER_0_641
*604 FILLER_0_657
*605 FILLER_0_667
*606 FILLER_0_671
*607 FILLER_0_677
*608 FILLER_0_685
*609 FILLER_0_689
*610 FILLER_0_69
*611 FILLER_0_695
*612 FILLER_0_699
*613 FILLER_0_7
*614 FILLER_0_702
*615 FILLER_0_707
*616 FILLER_0_715
*617 FILLER_0_719
*618 FILLER_0_72
*619 FILLER_0_725
*620 FILLER_0_733
*621 FILLER_0_737
*622 FILLER_0_769
*623 FILLER_0_772
*624 FILLER_0_777
*625 FILLER_0_793
*626 FILLER_0_80
*627 FILLER_0_801
*628 FILLER_0_807
*629 FILLER_0_815
*630 FILLER_0_821
*631 FILLER_0_837
*632 FILLER_0_839
*633 FILLER_0_84
*634 FILLER_0_842
*635 FILLER_0_874
*636 FILLER_0_877
*637 FILLER_0_881
*638 FILLER_0_887
*639 FILLER_0_89
*640 FILLER_0_895
*641 FILLER_0_899
*642 FILLER_0_905
*643 FILLER_0_909
*644 FILLER_0_912
*645 FILLER_0_916
*646 FILLER_0_918
*647 FILLER_0_923
*648 FILLER_0_939
*649 FILLER_0_943
*650 FILLER_0_947
*651 FILLER_0_979
*652 FILLER_0_982
*653 FILLER_0_990
*654 FILLER_0_994
*655 FILLER_0_996
*656 FILLER_100_101
*657 FILLER_100_1024
*658 FILLER_100_1028
*659 FILLER_100_1031
*660 FILLER_100_105
*661 FILLER_100_108
*662 FILLER_100_1095
*663 FILLER_100_1099
*664 FILLER_100_1102
*665 FILLER_100_1166
*666 FILLER_100_1170
*667 FILLER_100_1173
*668 FILLER_100_1237
*669 FILLER_100_1241
*670 FILLER_100_1244
*671 FILLER_100_1308
*672 FILLER_100_1312
*673 FILLER_100_1315
*674 FILLER_100_1379
*675 FILLER_100_1383
*676 FILLER_100_1386
*677 FILLER_100_1450
*678 FILLER_100_1454
*679 FILLER_100_1457
*680 FILLER_100_1521
*681 FILLER_100_1525
*682 FILLER_100_1528
*683 FILLER_100_1592
*684 FILLER_100_1596
*685 FILLER_100_1599
*686 FILLER_100_1663
*687 FILLER_100_1667
*688 FILLER_100_1670
*689 FILLER_100_172
*690 FILLER_100_1734
*691 FILLER_100_1738
*692 FILLER_100_1741
*693 FILLER_100_176
*694 FILLER_100_179
*695 FILLER_100_1805
*696 FILLER_100_1809
*697 FILLER_100_1812
*698 FILLER_100_1876
*699 FILLER_100_1880
*700 FILLER_100_1883
*701 FILLER_100_1915
*702 FILLER_100_1931
*703 FILLER_100_1935
*704 FILLER_100_1937
*705 FILLER_100_2
*706 FILLER_100_243
*707 FILLER_100_247
*708 FILLER_100_250
*709 FILLER_100_314
*710 FILLER_100_318
*711 FILLER_100_321
*712 FILLER_100_34
*713 FILLER_100_37
*714 FILLER_100_385
*715 FILLER_100_389
*716 FILLER_100_392
*717 FILLER_100_456
*718 FILLER_100_460
*719 FILLER_100_463
*720 FILLER_100_527
*721 FILLER_100_531
*722 FILLER_100_534
*723 FILLER_100_598
*724 FILLER_100_602
*725 FILLER_100_605
*726 FILLER_100_669
*727 FILLER_100_673
*728 FILLER_100_676
*729 FILLER_100_740
*730 FILLER_100_744
*731 FILLER_100_747
*732 FILLER_100_811
*733 FILLER_100_815
*734 FILLER_100_818
*735 FILLER_100_882
*736 FILLER_100_886
*737 FILLER_100_889
*738 FILLER_100_953
*739 FILLER_100_957
*740 FILLER_100_960
*741 FILLER_101_1060
*742 FILLER_101_1064
*743 FILLER_101_1067
*744 FILLER_101_1131
*745 FILLER_101_1135
*746 FILLER_101_1138
*747 FILLER_101_1202
*748 FILLER_101_1206
*749 FILLER_101_1209
*750 FILLER_101_1273
*751 FILLER_101_1277
*752 FILLER_101_1280
*753 FILLER_101_1344
*754 FILLER_101_1348
*755 FILLER_101_1351
*756 FILLER_101_137
*757 FILLER_101_141
*758 FILLER_101_1415
*759 FILLER_101_1419
*760 FILLER_101_1422
*761 FILLER_101_144
*762 FILLER_101_1486
*763 FILLER_101_1490
*764 FILLER_101_1493
*765 FILLER_101_1557
*766 FILLER_101_1561
*767 FILLER_101_1564
*768 FILLER_101_1628
*769 FILLER_101_1632
*770 FILLER_101_1635
*771 FILLER_101_1699
*772 FILLER_101_1703
*773 FILLER_101_1706
*774 FILLER_101_1770
*775 FILLER_101_1774
*776 FILLER_101_1777
*777 FILLER_101_1841
*778 FILLER_101_1845
*779 FILLER_101_1848
*780 FILLER_101_1912
*781 FILLER_101_1916
*782 FILLER_101_1919
*783 FILLER_101_1935
*784 FILLER_101_1937
*785 FILLER_101_2
*786 FILLER_101_208
*787 FILLER_101_212
*788 FILLER_101_215
*789 FILLER_101_279
*790 FILLER_101_283
*791 FILLER_101_286
*792 FILLER_101_350
*793 FILLER_101_354
*794 FILLER_101_357
*795 FILLER_101_421
*796 FILLER_101_425
*797 FILLER_101_428
*798 FILLER_101_492
*799 FILLER_101_496
*800 FILLER_101_499
*801 FILLER_101_563
*802 FILLER_101_567
*803 FILLER_101_570
*804 FILLER_101_634
*805 FILLER_101_638
*806 FILLER_101_641
*807 FILLER_101_66
*808 FILLER_101_70
*809 FILLER_101_705
*810 FILLER_101_709
*811 FILLER_101_712
*812 FILLER_101_73
*813 FILLER_101_776
*814 FILLER_101_780
*815 FILLER_101_783
*816 FILLER_101_847
*817 FILLER_101_851
*818 FILLER_101_854
*819 FILLER_101_918
*820 FILLER_101_922
*821 FILLER_101_925
*822 FILLER_101_989
*823 FILLER_101_993
*824 FILLER_101_996
*825 FILLER_102_101
*826 FILLER_102_1024
*827 FILLER_102_1028
*828 FILLER_102_1031
*829 FILLER_102_105
*830 FILLER_102_108
*831 FILLER_102_1095
*832 FILLER_102_1099
*833 FILLER_102_1102
*834 FILLER_102_1166
*835 FILLER_102_1170
*836 FILLER_102_1173
*837 FILLER_102_1237
*838 FILLER_102_1241
*839 FILLER_102_1244
*840 FILLER_102_1308
*841 FILLER_102_1312
*842 FILLER_102_1315
*843 FILLER_102_1379
*844 FILLER_102_1383
*845 FILLER_102_1386
*846 FILLER_102_1450
*847 FILLER_102_1454
*848 FILLER_102_1457
*849 FILLER_102_1521
*850 FILLER_102_1525
*851 FILLER_102_1528
*852 FILLER_102_1592
*853 FILLER_102_1596
*854 FILLER_102_1599
*855 FILLER_102_1663
*856 FILLER_102_1667
*857 FILLER_102_1670
*858 FILLER_102_172
*859 FILLER_102_1734
*860 FILLER_102_1738
*861 FILLER_102_1741
*862 FILLER_102_176
*863 FILLER_102_179
*864 FILLER_102_1805
*865 FILLER_102_1809
*866 FILLER_102_1812
*867 FILLER_102_1876
*868 FILLER_102_1880
*869 FILLER_102_1883
*870 FILLER_102_1915
*871 FILLER_102_1931
*872 FILLER_102_1937
*873 FILLER_102_2
*874 FILLER_102_243
*875 FILLER_102_247
*876 FILLER_102_250
*877 FILLER_102_314
*878 FILLER_102_318
*879 FILLER_102_321
*880 FILLER_102_34
*881 FILLER_102_37
*882 FILLER_102_385
*883 FILLER_102_389
*884 FILLER_102_392
*885 FILLER_102_456
*886 FILLER_102_460
*887 FILLER_102_463
*888 FILLER_102_527
*889 FILLER_102_531
*890 FILLER_102_534
*891 FILLER_102_598
*892 FILLER_102_602
*893 FILLER_102_605
*894 FILLER_102_669
*895 FILLER_102_673
*896 FILLER_102_676
*897 FILLER_102_740
*898 FILLER_102_744
*899 FILLER_102_747
*900 FILLER_102_811
*901 FILLER_102_815
*902 FILLER_102_818
*903 FILLER_102_882
*904 FILLER_102_886
*905 FILLER_102_889
*906 FILLER_102_953
*907 FILLER_102_957
*908 FILLER_102_960
*909 FILLER_103_1060
*910 FILLER_103_1064
*911 FILLER_103_1067
*912 FILLER_103_1131
*913 FILLER_103_1135
*914 FILLER_103_1138
*915 FILLER_103_1202
*916 FILLER_103_1206
*917 FILLER_103_1209
*918 FILLER_103_1273
*919 FILLER_103_1277
*920 FILLER_103_1280
*921 FILLER_103_1344
*922 FILLER_103_1348
*923 FILLER_103_1351
*924 FILLER_103_137
*925 FILLER_103_141
*926 FILLER_103_1415
*927 FILLER_103_1419
*928 FILLER_103_1422
*929 FILLER_103_144
*930 FILLER_103_1486
*931 FILLER_103_1490
*932 FILLER_103_1493
*933 FILLER_103_1557
*934 FILLER_103_1561
*935 FILLER_103_1564
*936 FILLER_103_1628
*937 FILLER_103_1632
*938 FILLER_103_1635
*939 FILLER_103_1699
*940 FILLER_103_1703
*941 FILLER_103_1706
*942 FILLER_103_1770
*943 FILLER_103_1774
*944 FILLER_103_1777
*945 FILLER_103_1841
*946 FILLER_103_1845
*947 FILLER_103_1848
*948 FILLER_103_1912
*949 FILLER_103_1916
*950 FILLER_103_1919
*951 FILLER_103_1935
*952 FILLER_103_1937
*953 FILLER_103_2
*954 FILLER_103_208
*955 FILLER_103_212
*956 FILLER_103_215
*957 FILLER_103_279
*958 FILLER_103_283
*959 FILLER_103_286
*960 FILLER_103_350
*961 FILLER_103_354
*962 FILLER_103_357
*963 FILLER_103_421
*964 FILLER_103_425
*965 FILLER_103_428
*966 FILLER_103_492
*967 FILLER_103_496
*968 FILLER_103_499
*969 FILLER_103_563
*970 FILLER_103_567
*971 FILLER_103_570
*972 FILLER_103_634
*973 FILLER_103_638
*974 FILLER_103_641
*975 FILLER_103_66
*976 FILLER_103_70
*977 FILLER_103_705
*978 FILLER_103_709
*979 FILLER_103_712
*980 FILLER_103_73
*981 FILLER_103_776
*982 FILLER_103_780
*983 FILLER_103_783
*984 FILLER_103_847
*985 FILLER_103_851
*986 FILLER_103_854
*987 FILLER_103_918
*988 FILLER_103_922
*989 FILLER_103_925
*990 FILLER_103_989
*991 FILLER_103_993
*992 FILLER_103_996
*993 FILLER_104_101
*994 FILLER_104_1024
*995 FILLER_104_1028
*996 FILLER_104_1031
*997 FILLER_104_105
*998 FILLER_104_108
*999 FILLER_104_1095
*1000 FILLER_104_1099
*1001 FILLER_104_1102
*1002 FILLER_104_1166
*1003 FILLER_104_1170
*1004 FILLER_104_1173
*1005 FILLER_104_1237
*1006 FILLER_104_1241
*1007 FILLER_104_1244
*1008 FILLER_104_1308
*1009 FILLER_104_1312
*1010 FILLER_104_1315
*1011 FILLER_104_1379
*1012 FILLER_104_1383
*1013 FILLER_104_1386
*1014 FILLER_104_1450
*1015 FILLER_104_1454
*1016 FILLER_104_1457
*1017 FILLER_104_1521
*1018 FILLER_104_1525
*1019 FILLER_104_1528
*1020 FILLER_104_1592
*1021 FILLER_104_1596
*1022 FILLER_104_1599
*1023 FILLER_104_1663
*1024 FILLER_104_1667
*1025 FILLER_104_1670
*1026 FILLER_104_172
*1027 FILLER_104_1734
*1028 FILLER_104_1738
*1029 FILLER_104_1741
*1030 FILLER_104_176
*1031 FILLER_104_179
*1032 FILLER_104_1805
*1033 FILLER_104_1809
*1034 FILLER_104_1812
*1035 FILLER_104_1876
*1036 FILLER_104_1880
*1037 FILLER_104_1883
*1038 FILLER_104_1915
*1039 FILLER_104_1931
*1040 FILLER_104_1935
*1041 FILLER_104_1937
*1042 FILLER_104_2
*1043 FILLER_104_243
*1044 FILLER_104_247
*1045 FILLER_104_250
*1046 FILLER_104_314
*1047 FILLER_104_318
*1048 FILLER_104_321
*1049 FILLER_104_34
*1050 FILLER_104_37
*1051 FILLER_104_385
*1052 FILLER_104_389
*1053 FILLER_104_392
*1054 FILLER_104_456
*1055 FILLER_104_460
*1056 FILLER_104_463
*1057 FILLER_104_527
*1058 FILLER_104_531
*1059 FILLER_104_534
*1060 FILLER_104_598
*1061 FILLER_104_602
*1062 FILLER_104_605
*1063 FILLER_104_669
*1064 FILLER_104_673
*1065 FILLER_104_676
*1066 FILLER_104_740
*1067 FILLER_104_744
*1068 FILLER_104_747
*1069 FILLER_104_811
*1070 FILLER_104_815
*1071 FILLER_104_818
*1072 FILLER_104_882
*1073 FILLER_104_886
*1074 FILLER_104_889
*1075 FILLER_104_953
*1076 FILLER_104_957
*1077 FILLER_104_960
*1078 FILLER_105_1060
*1079 FILLER_105_1064
*1080 FILLER_105_1067
*1081 FILLER_105_1131
*1082 FILLER_105_1135
*1083 FILLER_105_1138
*1084 FILLER_105_1202
*1085 FILLER_105_1206
*1086 FILLER_105_1209
*1087 FILLER_105_1273
*1088 FILLER_105_1277
*1089 FILLER_105_1280
*1090 FILLER_105_1344
*1091 FILLER_105_1348
*1092 FILLER_105_1351
*1093 FILLER_105_137
*1094 FILLER_105_141
*1095 FILLER_105_1415
*1096 FILLER_105_1419
*1097 FILLER_105_1422
*1098 FILLER_105_144
*1099 FILLER_105_1486
*1100 FILLER_105_1490
*1101 FILLER_105_1493
*1102 FILLER_105_1557
*1103 FILLER_105_1561
*1104 FILLER_105_1564
*1105 FILLER_105_1628
*1106 FILLER_105_1632
*1107 FILLER_105_1635
*1108 FILLER_105_1699
*1109 FILLER_105_1703
*1110 FILLER_105_1706
*1111 FILLER_105_1770
*1112 FILLER_105_1774
*1113 FILLER_105_1777
*1114 FILLER_105_1841
*1115 FILLER_105_1845
*1116 FILLER_105_1848
*1117 FILLER_105_1912
*1118 FILLER_105_1916
*1119 FILLER_105_1919
*1120 FILLER_105_1935
*1121 FILLER_105_1937
*1122 FILLER_105_2
*1123 FILLER_105_208
*1124 FILLER_105_212
*1125 FILLER_105_215
*1126 FILLER_105_279
*1127 FILLER_105_283
*1128 FILLER_105_286
*1129 FILLER_105_350
*1130 FILLER_105_354
*1131 FILLER_105_357
*1132 FILLER_105_421
*1133 FILLER_105_425
*1134 FILLER_105_428
*1135 FILLER_105_492
*1136 FILLER_105_496
*1137 FILLER_105_499
*1138 FILLER_105_563
*1139 FILLER_105_567
*1140 FILLER_105_570
*1141 FILLER_105_634
*1142 FILLER_105_638
*1143 FILLER_105_641
*1144 FILLER_105_7
*1145 FILLER_105_705
*1146 FILLER_105_709
*1147 FILLER_105_712
*1148 FILLER_105_73
*1149 FILLER_105_776
*1150 FILLER_105_780
*1151 FILLER_105_783
*1152 FILLER_105_847
*1153 FILLER_105_851
*1154 FILLER_105_854
*1155 FILLER_105_918
*1156 FILLER_105_922
*1157 FILLER_105_925
*1158 FILLER_105_989
*1159 FILLER_105_993
*1160 FILLER_105_996
*1161 FILLER_106_101
*1162 FILLER_106_1024
*1163 FILLER_106_1028
*1164 FILLER_106_1031
*1165 FILLER_106_105
*1166 FILLER_106_108
*1167 FILLER_106_1095
*1168 FILLER_106_1099
*1169 FILLER_106_1102
*1170 FILLER_106_1166
*1171 FILLER_106_1170
*1172 FILLER_106_1173
*1173 FILLER_106_1237
*1174 FILLER_106_1241
*1175 FILLER_106_1244
*1176 FILLER_106_1308
*1177 FILLER_106_1312
*1178 FILLER_106_1315
*1179 FILLER_106_1379
*1180 FILLER_106_1383
*1181 FILLER_106_1386
*1182 FILLER_106_1450
*1183 FILLER_106_1454
*1184 FILLER_106_1457
*1185 FILLER_106_1521
*1186 FILLER_106_1525
*1187 FILLER_106_1528
*1188 FILLER_106_1592
*1189 FILLER_106_1596
*1190 FILLER_106_1599
*1191 FILLER_106_1663
*1192 FILLER_106_1667
*1193 FILLER_106_1670
*1194 FILLER_106_172
*1195 FILLER_106_1734
*1196 FILLER_106_1738
*1197 FILLER_106_1741
*1198 FILLER_106_176
*1199 FILLER_106_179
*1200 FILLER_106_1805
*1201 FILLER_106_1809
*1202 FILLER_106_1812
*1203 FILLER_106_1876
*1204 FILLER_106_1880
*1205 FILLER_106_1883
*1206 FILLER_106_1915
*1207 FILLER_106_1931
*1208 FILLER_106_1935
*1209 FILLER_106_1937
*1210 FILLER_106_2
*1211 FILLER_106_243
*1212 FILLER_106_247
*1213 FILLER_106_250
*1214 FILLER_106_314
*1215 FILLER_106_318
*1216 FILLER_106_321
*1217 FILLER_106_34
*1218 FILLER_106_37
*1219 FILLER_106_385
*1220 FILLER_106_389
*1221 FILLER_106_392
*1222 FILLER_106_456
*1223 FILLER_106_460
*1224 FILLER_106_463
*1225 FILLER_106_527
*1226 FILLER_106_531
*1227 FILLER_106_534
*1228 FILLER_106_598
*1229 FILLER_106_602
*1230 FILLER_106_605
*1231 FILLER_106_669
*1232 FILLER_106_673
*1233 FILLER_106_676
*1234 FILLER_106_740
*1235 FILLER_106_744
*1236 FILLER_106_747
*1237 FILLER_106_811
*1238 FILLER_106_815
*1239 FILLER_106_818
*1240 FILLER_106_882
*1241 FILLER_106_886
*1242 FILLER_106_889
*1243 FILLER_106_953
*1244 FILLER_106_957
*1245 FILLER_106_960
*1246 FILLER_107_1060
*1247 FILLER_107_1064
*1248 FILLER_107_1067
*1249 FILLER_107_1131
*1250 FILLER_107_1135
*1251 FILLER_107_1138
*1252 FILLER_107_1202
*1253 FILLER_107_1206
*1254 FILLER_107_1209
*1255 FILLER_107_1273
*1256 FILLER_107_1277
*1257 FILLER_107_1280
*1258 FILLER_107_1344
*1259 FILLER_107_1348
*1260 FILLER_107_1351
*1261 FILLER_107_137
*1262 FILLER_107_141
*1263 FILLER_107_1415
*1264 FILLER_107_1419
*1265 FILLER_107_1422
*1266 FILLER_107_144
*1267 FILLER_107_1486
*1268 FILLER_107_1490
*1269 FILLER_107_1493
*1270 FILLER_107_1557
*1271 FILLER_107_1561
*1272 FILLER_107_1564
*1273 FILLER_107_1628
*1274 FILLER_107_1632
*1275 FILLER_107_1635
*1276 FILLER_107_1699
*1277 FILLER_107_1703
*1278 FILLER_107_1706
*1279 FILLER_107_1770
*1280 FILLER_107_1774
*1281 FILLER_107_1777
*1282 FILLER_107_1841
*1283 FILLER_107_1845
*1284 FILLER_107_1848
*1285 FILLER_107_1912
*1286 FILLER_107_1916
*1287 FILLER_107_1919
*1288 FILLER_107_1935
*1289 FILLER_107_1937
*1290 FILLER_107_2
*1291 FILLER_107_208
*1292 FILLER_107_212
*1293 FILLER_107_215
*1294 FILLER_107_279
*1295 FILLER_107_283
*1296 FILLER_107_286
*1297 FILLER_107_350
*1298 FILLER_107_354
*1299 FILLER_107_357
*1300 FILLER_107_421
*1301 FILLER_107_425
*1302 FILLER_107_428
*1303 FILLER_107_492
*1304 FILLER_107_496
*1305 FILLER_107_499
*1306 FILLER_107_563
*1307 FILLER_107_567
*1308 FILLER_107_570
*1309 FILLER_107_634
*1310 FILLER_107_638
*1311 FILLER_107_641
*1312 FILLER_107_66
*1313 FILLER_107_70
*1314 FILLER_107_705
*1315 FILLER_107_709
*1316 FILLER_107_712
*1317 FILLER_107_73
*1318 FILLER_107_776
*1319 FILLER_107_780
*1320 FILLER_107_783
*1321 FILLER_107_847
*1322 FILLER_107_851
*1323 FILLER_107_854
*1324 FILLER_107_918
*1325 FILLER_107_922
*1326 FILLER_107_925
*1327 FILLER_107_989
*1328 FILLER_107_993
*1329 FILLER_107_996
*1330 FILLER_108_101
*1331 FILLER_108_1024
*1332 FILLER_108_1028
*1333 FILLER_108_1031
*1334 FILLER_108_105
*1335 FILLER_108_108
*1336 FILLER_108_1095
*1337 FILLER_108_1099
*1338 FILLER_108_1102
*1339 FILLER_108_1166
*1340 FILLER_108_1170
*1341 FILLER_108_1173
*1342 FILLER_108_1237
*1343 FILLER_108_1241
*1344 FILLER_108_1244
*1345 FILLER_108_1308
*1346 FILLER_108_1312
*1347 FILLER_108_1315
*1348 FILLER_108_1379
*1349 FILLER_108_1383
*1350 FILLER_108_1386
*1351 FILLER_108_1450
*1352 FILLER_108_1454
*1353 FILLER_108_1457
*1354 FILLER_108_1521
*1355 FILLER_108_1525
*1356 FILLER_108_1528
*1357 FILLER_108_1592
*1358 FILLER_108_1596
*1359 FILLER_108_1599
*1360 FILLER_108_1663
*1361 FILLER_108_1667
*1362 FILLER_108_1670
*1363 FILLER_108_172
*1364 FILLER_108_1734
*1365 FILLER_108_1738
*1366 FILLER_108_1741
*1367 FILLER_108_176
*1368 FILLER_108_179
*1369 FILLER_108_1805
*1370 FILLER_108_1809
*1371 FILLER_108_1812
*1372 FILLER_108_1876
*1373 FILLER_108_1880
*1374 FILLER_108_1883
*1375 FILLER_108_1915
*1376 FILLER_108_1931
*1377 FILLER_108_1937
*1378 FILLER_108_2
*1379 FILLER_108_243
*1380 FILLER_108_247
*1381 FILLER_108_250
*1382 FILLER_108_314
*1383 FILLER_108_318
*1384 FILLER_108_321
*1385 FILLER_108_34
*1386 FILLER_108_37
*1387 FILLER_108_385
*1388 FILLER_108_389
*1389 FILLER_108_392
*1390 FILLER_108_456
*1391 FILLER_108_460
*1392 FILLER_108_463
*1393 FILLER_108_527
*1394 FILLER_108_531
*1395 FILLER_108_534
*1396 FILLER_108_598
*1397 FILLER_108_602
*1398 FILLER_108_605
*1399 FILLER_108_669
*1400 FILLER_108_673
*1401 FILLER_108_676
*1402 FILLER_108_740
*1403 FILLER_108_744
*1404 FILLER_108_747
*1405 FILLER_108_811
*1406 FILLER_108_815
*1407 FILLER_108_818
*1408 FILLER_108_882
*1409 FILLER_108_886
*1410 FILLER_108_889
*1411 FILLER_108_953
*1412 FILLER_108_957
*1413 FILLER_108_960
*1414 FILLER_109_1060
*1415 FILLER_109_1064
*1416 FILLER_109_1067
*1417 FILLER_109_1131
*1418 FILLER_109_1135
*1419 FILLER_109_1138
*1420 FILLER_109_1202
*1421 FILLER_109_1206
*1422 FILLER_109_1209
*1423 FILLER_109_1273
*1424 FILLER_109_1277
*1425 FILLER_109_1280
*1426 FILLER_109_1344
*1427 FILLER_109_1348
*1428 FILLER_109_1351
*1429 FILLER_109_137
*1430 FILLER_109_141
*1431 FILLER_109_1415
*1432 FILLER_109_1419
*1433 FILLER_109_1422
*1434 FILLER_109_144
*1435 FILLER_109_1486
*1436 FILLER_109_1490
*1437 FILLER_109_1493
*1438 FILLER_109_1557
*1439 FILLER_109_1561
*1440 FILLER_109_1564
*1441 FILLER_109_1628
*1442 FILLER_109_1632
*1443 FILLER_109_1635
*1444 FILLER_109_1699
*1445 FILLER_109_1703
*1446 FILLER_109_1706
*1447 FILLER_109_1770
*1448 FILLER_109_1774
*1449 FILLER_109_1777
*1450 FILLER_109_1841
*1451 FILLER_109_1845
*1452 FILLER_109_1848
*1453 FILLER_109_1912
*1454 FILLER_109_1916
*1455 FILLER_109_1919
*1456 FILLER_109_1935
*1457 FILLER_109_1937
*1458 FILLER_109_2
*1459 FILLER_109_208
*1460 FILLER_109_212
*1461 FILLER_109_215
*1462 FILLER_109_279
*1463 FILLER_109_283
*1464 FILLER_109_286
*1465 FILLER_109_350
*1466 FILLER_109_354
*1467 FILLER_109_357
*1468 FILLER_109_421
*1469 FILLER_109_425
*1470 FILLER_109_428
*1471 FILLER_109_492
*1472 FILLER_109_496
*1473 FILLER_109_499
*1474 FILLER_109_563
*1475 FILLER_109_567
*1476 FILLER_109_570
*1477 FILLER_109_634
*1478 FILLER_109_638
*1479 FILLER_109_641
*1480 FILLER_109_66
*1481 FILLER_109_70
*1482 FILLER_109_705
*1483 FILLER_109_709
*1484 FILLER_109_712
*1485 FILLER_109_73
*1486 FILLER_109_776
*1487 FILLER_109_780
*1488 FILLER_109_783
*1489 FILLER_109_847
*1490 FILLER_109_851
*1491 FILLER_109_854
*1492 FILLER_109_918
*1493 FILLER_109_922
*1494 FILLER_109_925
*1495 FILLER_109_989
*1496 FILLER_109_993
*1497 FILLER_109_996
*1498 FILLER_10_101
*1499 FILLER_10_1024
*1500 FILLER_10_1028
*1501 FILLER_10_1031
*1502 FILLER_10_105
*1503 FILLER_10_108
*1504 FILLER_10_1095
*1505 FILLER_10_1099
*1506 FILLER_10_1102
*1507 FILLER_10_1166
*1508 FILLER_10_1170
*1509 FILLER_10_1173
*1510 FILLER_10_1237
*1511 FILLER_10_1241
*1512 FILLER_10_1244
*1513 FILLER_10_1308
*1514 FILLER_10_1312
*1515 FILLER_10_1315
*1516 FILLER_10_1379
*1517 FILLER_10_1383
*1518 FILLER_10_1386
*1519 FILLER_10_1450
*1520 FILLER_10_1454
*1521 FILLER_10_1457
*1522 FILLER_10_1521
*1523 FILLER_10_1525
*1524 FILLER_10_1528
*1525 FILLER_10_1592
*1526 FILLER_10_1596
*1527 FILLER_10_1599
*1528 FILLER_10_1663
*1529 FILLER_10_1667
*1530 FILLER_10_1670
*1531 FILLER_10_172
*1532 FILLER_10_1734
*1533 FILLER_10_1738
*1534 FILLER_10_1741
*1535 FILLER_10_176
*1536 FILLER_10_179
*1537 FILLER_10_1805
*1538 FILLER_10_1809
*1539 FILLER_10_1812
*1540 FILLER_10_1876
*1541 FILLER_10_1880
*1542 FILLER_10_1883
*1543 FILLER_10_1915
*1544 FILLER_10_1931
*1545 FILLER_10_1935
*1546 FILLER_10_1937
*1547 FILLER_10_2
*1548 FILLER_10_23
*1549 FILLER_10_243
*1550 FILLER_10_247
*1551 FILLER_10_250
*1552 FILLER_10_31
*1553 FILLER_10_314
*1554 FILLER_10_318
*1555 FILLER_10_321
*1556 FILLER_10_37
*1557 FILLER_10_385
*1558 FILLER_10_389
*1559 FILLER_10_392
*1560 FILLER_10_456
*1561 FILLER_10_460
*1562 FILLER_10_463
*1563 FILLER_10_527
*1564 FILLER_10_531
*1565 FILLER_10_534
*1566 FILLER_10_598
*1567 FILLER_10_602