*SPEF "ieee 1481-1999"
*DESIGN "tiny_user_project"
*DATE "11:11:11 Fri 11 11, 1111"
*VENDOR "OpenRCX"
*PROGRAM "Parallel Extraction"
*VERSION "1.0"
*DESIGN_FLOW "NAME_SCOPE LOCAL" "PIN_CAP NONE"
*DIVIDER /
*DELIMITER :
*BUS_DELIMITER []
*T_UNIT 1 NS
*C_UNIT 1 PF
*R_UNIT 1 OHM
*L_UNIT 1 HENRY

*NAME_MAP
*1 io_in[0]
*2 io_in[10]
*3 io_in[11]
*4 io_in[12]
*5 io_in[13]
*6 io_in[14]
*7 io_in[15]
*8 io_in[16]
*9 io_in[17]
*10 io_in[18]
*11 io_in[19]
*12 io_in[1]
*13 io_in[20]
*14 io_in[21]
*15 io_in[22]
*16 io_in[23]
*17 io_in[24]
*18 io_in[25]
*19 io_in[26]
*20 io_in[27]
*21 io_in[28]
*22 io_in[29]
*23 io_in[2]
*24 io_in[30]
*25 io_in[31]
*26 io_in[32]
*27 io_in[33]
*28 io_in[34]
*29 io_in[35]
*30 io_in[36]
*31 io_in[37]
*32 io_in[3]
*33 io_in[4]
*34 io_in[5]
*35 io_in[6]
*36 io_in[7]
*37 io_in[8]
*38 io_in[9]
*39 net99
*40 net109
*41 net110
*42 net111
*43 net112
*44 net113
*45 net114
*46 net115
*47 net116
*48 net117
*49 net118
*50 net100
*51 net119
*52 net120
*53 net121
*54 net122
*55 net123
*56 net124
*57 net125
*58 net126
*59 net127
*60 net128
*61 net101
*62 net129
*63 net130
*64 net131
*65 net132
*66 net133
*67 net134
*68 net135
*69 net136
*70 net102
*71 net103
*72 net104
*73 net105
*74 net106
*75 net107
*76 net108
*77 net61
*78 net71
*79 net72
*80 net73
*81 net74
*82 net75
*83 net76
*84 net77
*85 net78
*86 net79
*87 net80
*88 net62
*89 net81
*90 net82
*91 net83
*92 net84
*93 net85
*94 net86
*95 net87
*96 net88
*97 net89
*98 net90
*99 net63
*100 net91
*101 net92
*102 net93
*103 net94
*104 net95
*105 net96
*106 net97
*107 net98
*108 net64
*109 net65
*110 net66
*111 net67
*112 net68
*113 net69
*114 net70
*115 la_data_in[0]
*116 la_data_in[10]
*117 la_data_in[11]
*118 la_data_in[12]
*119 la_data_in[13]
*120 la_data_in[14]
*121 la_data_in[15]
*122 la_data_in[16]
*123 la_data_in[17]
*124 la_data_in[18]
*125 la_data_in[19]
*126 la_data_in[1]
*127 la_data_in[20]
*128 la_data_in[21]
*129 la_data_in[22]
*130 la_data_in[23]
*131 la_data_in[24]
*132 la_data_in[25]
*133 la_data_in[26]
*134 la_data_in[27]
*135 la_data_in[28]
*136 la_data_in[29]
*137 la_data_in[2]
*138 la_data_in[30]
*139 la_data_in[31]
*140 la_data_in[32]
*141 la_data_in[33]
*142 la_data_in[34]
*143 la_data_in[35]
*144 la_data_in[36]
*145 la_data_in[37]
*146 la_data_in[38]
*147 la_data_in[39]
*148 la_data_in[3]
*149 la_data_in[40]
*150 la_data_in[41]
*151 la_data_in[42]
*152 la_data_in[43]
*153 la_data_in[44]
*154 la_data_in[45]
*155 la_data_in[46]
*156 la_data_in[47]
*157 la_data_in[48]
*158 la_data_in[49]
*159 la_data_in[4]
*160 la_data_in[50]
*161 la_data_in[51]
*162 la_data_in[52]
*163 la_data_in[53]
*164 la_data_in[54]
*165 la_data_in[55]
*166 la_data_in[56]
*167 la_data_in[57]
*168 la_data_in[58]
*169 la_data_in[59]
*170 la_data_in[5]
*171 la_data_in[60]
*172 la_data_in[61]
*173 la_data_in[62]
*174 la_data_in[63]
*175 la_data_in[6]
*176 la_data_in[7]
*177 la_data_in[8]
*178 la_data_in[9]
*179 net173
*180 net7
*181 net8
*182 net9
*183 net10
*184 net11
*185 net12
*186 net13
*187 net14
*188 net15
*189 net16
*190 net174
*191 net17
*192 net18
*193 net19
*194 net20
*195 net21
*196 net22
*197 net23
*198 net24
*199 net25
*200 net26
*201 net175
*202 net27
*203 net28
*204 net29
*205 net30
*206 net31
*207 net32
*208 net33
*209 net34
*210 net35
*211 net36
*212 net176
*213 net37
*214 net38
*215 net39
*216 net40
*217 net41
*218 net42
*219 net43
*220 net44
*221 net45
*222 net46
*223 net1
*224 net47
*225 net48
*226 net49
*227 net50
*228 net51
*229 net52
*230 net53
*231 net54
*232 net55
*233 net56
*234 net2
*235 net57
*236 net58
*237 net59
*238 net60
*239 net3
*240 net4
*241 net5
*242 net6
*243 la_oenb[0]
*244 la_oenb[10]
*245 la_oenb[11]
*246 la_oenb[12]
*247 la_oenb[13]
*248 la_oenb[14]
*249 la_oenb[15]
*250 la_oenb[16]
*251 la_oenb[17]
*252 la_oenb[18]
*253 la_oenb[19]
*254 la_oenb[1]
*255 la_oenb[20]
*256 la_oenb[21]
*257 la_oenb[22]
*258 la_oenb[23]
*259 la_oenb[24]
*260 la_oenb[25]
*261 la_oenb[26]
*262 la_oenb[27]
*263 la_oenb[28]
*264 la_oenb[29]
*265 la_oenb[2]
*266 la_oenb[30]
*267 la_oenb[31]
*268 la_oenb[32]
*269 la_oenb[33]
*270 la_oenb[34]
*271 la_oenb[35]
*272 la_oenb[36]
*273 la_oenb[37]
*274 la_oenb[38]
*275 la_oenb[39]
*276 la_oenb[3]
*277 la_oenb[40]
*278 la_oenb[41]
*279 la_oenb[42]
*280 la_oenb[43]
*281 la_oenb[44]
*282 la_oenb[45]
*283 la_oenb[46]
*284 la_oenb[47]
*285 la_oenb[48]
*286 la_oenb[49]
*287 la_oenb[4]
*288 la_oenb[50]
*289 la_oenb[51]
*290 la_oenb[52]
*291 la_oenb[53]
*292 la_oenb[54]
*293 la_oenb[55]
*294 la_oenb[56]
*295 la_oenb[57]
*296 la_oenb[58]
*297 la_oenb[59]
*298 la_oenb[5]
*299 la_oenb[60]
*300 la_oenb[61]
*301 la_oenb[62]
*302 la_oenb[63]
*303 la_oenb[6]
*304 la_oenb[7]
*305 la_oenb[8]
*306 la_oenb[9]
*307 user_clock2
*308 net137
*309 net138
*310 net139
*313 wb_clk_i
*314 wb_rst_i
*315 net140
*316 wbs_adr_i[0]
*317 wbs_adr_i[10]
*318 wbs_adr_i[11]
*319 wbs_adr_i[12]
*320 wbs_adr_i[13]
*321 wbs_adr_i[14]
*322 wbs_adr_i[15]
*323 wbs_adr_i[16]
*324 wbs_adr_i[17]
*325 wbs_adr_i[18]
*326 wbs_adr_i[19]
*327 wbs_adr_i[1]
*328 wbs_adr_i[20]
*329 wbs_adr_i[21]
*330 wbs_adr_i[22]
*331 wbs_adr_i[23]
*332 wbs_adr_i[24]
*333 wbs_adr_i[25]
*334 wbs_adr_i[26]
*335 wbs_adr_i[27]
*336 wbs_adr_i[28]
*337 wbs_adr_i[29]
*338 wbs_adr_i[2]
*339 wbs_adr_i[30]
*340 wbs_adr_i[31]
*341 wbs_adr_i[3]
*342 wbs_adr_i[4]
*343 wbs_adr_i[5]
*344 wbs_adr_i[6]
*345 wbs_adr_i[7]
*346 wbs_adr_i[8]
*347 wbs_adr_i[9]
*348 wbs_cyc_i
*349 wbs_dat_i[0]
*350 wbs_dat_i[10]
*351 wbs_dat_i[11]
*352 wbs_dat_i[12]
*353 wbs_dat_i[13]
*354 wbs_dat_i[14]
*355 wbs_dat_i[15]
*356 wbs_dat_i[16]
*357 wbs_dat_i[17]
*358 wbs_dat_i[18]
*359 wbs_dat_i[19]
*360 wbs_dat_i[1]
*361 wbs_dat_i[20]
*362 wbs_dat_i[21]
*363 wbs_dat_i[22]
*364 wbs_dat_i[23]
*365 wbs_dat_i[24]
*366 wbs_dat_i[25]
*367 wbs_dat_i[26]
*368 wbs_dat_i[27]
*369 wbs_dat_i[28]
*370 wbs_dat_i[29]
*371 wbs_dat_i[2]
*372 wbs_dat_i[30]
*373 wbs_dat_i[31]
*374 wbs_dat_i[3]
*375 wbs_dat_i[4]
*376 wbs_dat_i[5]
*377 wbs_dat_i[6]
*378 wbs_dat_i[7]
*379 wbs_dat_i[8]
*380 wbs_dat_i[9]
*381 net141
*382 net151
*383 net152
*384 net153
*385 net154
*386 net155
*387 net156
*388 net157
*389 net158
*390 net159
*391 net160
*392 net142
*393 net161
*394 net162
*395 net163
*396 net164
*397 net165
*398 net166
*399 net167
*400 net168
*401 net169
*402 net170
*403 net143
*404 net171
*405 net172
*406 net144
*407 net145
*408 net146
*409 net147
*410 net148
*411 net149
*412 net150
*413 wbs_sel_i[0]
*414 wbs_sel_i[1]
*415 wbs_sel_i[2]
*416 wbs_sel_i[3]
*417 wbs_stb_i
*418 wbs_we_i
*419 FILLER_0_101
*420 FILLER_0_1011
*421 FILLER_0_1017
*422 FILLER_0_1025
*423 FILLER_0_1037
*424 FILLER_0_1039
*425 FILLER_0_1044
*426 FILLER_0_107
*427 FILLER_0_11
*428 FILLER_0_115
*429 FILLER_0_119
*430 FILLER_0_125
*431 FILLER_0_133
*432 FILLER_0_137
*433 FILLER_0_139
*434 FILLER_0_142
*435 FILLER_0_174
*436 FILLER_0_177
*437 FILLER_0_2
*438 FILLER_0_209
*439 FILLER_0_212
*440 FILLER_0_228
*441 FILLER_0_233
*442 FILLER_0_237
*443 FILLER_0_239
*444 FILLER_0_244
*445 FILLER_0_247
*446 FILLER_0_251
*447 FILLER_0_257
*448 FILLER_0_263
*449 FILLER_0_27
*450 FILLER_0_279
*451 FILLER_0_282
*452 FILLER_0_287
*453 FILLER_0_299
*454 FILLER_0_317
*455 FILLER_0_323
*456 FILLER_0_329
*457 FILLER_0_345
*458 FILLER_0_349
*459 FILLER_0_352
*460 FILLER_0_368
*461 FILLER_0_37
*462 FILLER_0_372
*463 FILLER_0_377
*464 FILLER_0_387
*465 FILLER_0_395
*466 FILLER_0_411
*467 FILLER_0_419
*468 FILLER_0_422
*469 FILLER_0_426
*470 FILLER_0_431
*471 FILLER_0_447
*472 FILLER_0_449
*473 FILLER_0_454
*474 FILLER_0_457
*475 FILLER_0_462
*476 FILLER_0_466
*477 FILLER_0_468
*478 FILLER_0_473
*479 FILLER_0_485
*480 FILLER_0_489
*481 FILLER_0_492
*482 FILLER_0_508
*483 FILLER_0_516
*484 FILLER_0_521
*485 FILLER_0_527
*486 FILLER_0_53
*487 FILLER_0_543
*488 FILLER_0_551
*489 FILLER_0_559
*490 FILLER_0_562
*491 FILLER_0_59
*492 FILLER_0_594
*493 FILLER_0_597
*494 FILLER_0_6
*495 FILLER_0_602
*496 FILLER_0_608
*497 FILLER_0_612
*498 FILLER_0_617
*499 FILLER_0_625
*500 FILLER_0_629
*501 FILLER_0_632
*502 FILLER_0_65
*503 FILLER_0_664
*504 FILLER_0_667
*505 FILLER_0_672
*506 FILLER_0_676
*507 FILLER_0_678
*508 FILLER_0_683
*509 FILLER_0_69
*510 FILLER_0_695
*511 FILLER_0_699
*512 FILLER_0_702
*513 FILLER_0_718
*514 FILLER_0_72
*515 FILLER_0_726
*516 FILLER_0_731
*517 FILLER_0_737
*518 FILLER_0_749
*519 FILLER_0_761
*520 FILLER_0_769
*521 FILLER_0_77
*522 FILLER_0_772
*523 FILLER_0_777
*524 FILLER_0_793
*525 FILLER_0_801
*526 FILLER_0_807
*527 FILLER_0_827
*528 FILLER_0_835
*529 FILLER_0_839
*530 FILLER_0_842
*531 FILLER_0_874
*532 FILLER_0_877
*533 FILLER_0_885
*534 FILLER_0_893
*535 FILLER_0_909
*536 FILLER_0_912
*537 FILLER_0_93
*538 FILLER_0_944
*539 FILLER_0_947
*540 FILLER_0_952
*541 FILLER_0_960
*542 FILLER_0_964
*543 FILLER_0_966
*544 FILLER_0_971
*545 FILLER_0_979
*546 FILLER_0_982
*547 FILLER_0_987
*548 FILLER_0_995
*549 FILLER_100_101
*550 FILLER_100_1024
*551 FILLER_100_1028
*552 FILLER_100_1031
*553 FILLER_100_1039
*554 FILLER_100_1043
*555 FILLER_100_105
*556 FILLER_100_108
*557 FILLER_100_172
*558 FILLER_100_176
*559 FILLER_100_179
*560 FILLER_100_2
*561 FILLER_100_243
*562 FILLER_100_247
*563 FILLER_100_250
*564 FILLER_100_314
*565 FILLER_100_318
*566 FILLER_100_321
*567 FILLER_100_34
*568 FILLER_100_37
*569 FILLER_100_385
*570 FILLER_100_389
*571 FILLER_100_392
*572 FILLER_100_456
*573 FILLER_100_460
*574 FILLER_100_463
*575 FILLER_100_527
*576 FILLER_100_531
*577 FILLER_100_534
*578 FILLER_100_598
*579 FILLER_100_602
*580 FILLER_100_605
*581 FILLER_100_669
*582 FILLER_100_673
*583 FILLER_100_676
*584 FILLER_100_740
*585 FILLER_100_744
*586 FILLER_100_747
*587 FILLER_100_811
*588 FILLER_100_815
*589 FILLER_100_818
*590 FILLER_100_882
*591 FILLER_100_886
*592 FILLER_100_889
*593 FILLER_100_953
*594 FILLER_100_957
*595 FILLER_100_960
*596 FILLER_101_1028
*597 FILLER_101_1036
*598 FILLER_101_1044
*599 FILLER_101_137
*600 FILLER_101_141
*601 FILLER_101_144
*602 FILLER_101_2
*603 FILLER_101_208
*604 FILLER_101_212
*605 FILLER_101_215
*606 FILLER_101_279
*607 FILLER_101_283
*608 FILLER_101_286
*609 FILLER_101_350
*610 FILLER_101_354
*611 FILLER_101_357
*612 FILLER_101_421
*613 FILLER_101_425
*614 FILLER_101_428
*615 FILLER_101_492
*616 FILLER_101_496
*617 FILLER_101_499
*618 FILLER_101_563
*619 FILLER_101_567
*620 FILLER_101_570
*621 FILLER_101_634
*622 FILLER_101_638
*623 FILLER_101_641
*624 FILLER_101_66
*625 FILLER_101_70
*626 FILLER_101_705
*627 FILLER_101_709
*628 FILLER_101_712
*629 FILLER_101_73
*630 FILLER_101_776
*631 FILLER_101_780
*632 FILLER_101_783
*633 FILLER_101_847
*634 FILLER_101_851
*635 FILLER_101_854
*636 FILLER_101_918
*637 FILLER_101_922
*638 FILLER_101_925
*639 FILLER_101_989
*640 FILLER_101_993
*641 FILLER_101_996
*642 FILLER_102_101
*643 FILLER_102_1024
*644 FILLER_102_1028
*645 FILLER_102_1031
*646 FILLER_102_1039
*647 FILLER_102_1043
*648 FILLER_102_105
*649 FILLER_102_108
*650 FILLER_102_13
*651 FILLER_102_172
*652 FILLER_102_176
*653 FILLER_102_179
*654 FILLER_102_2
*655 FILLER_102_243
*656 FILLER_102_247
*657 FILLER_102_250
*658 FILLER_102_29
*659 FILLER_102_314
*660 FILLER_102_318
*661 FILLER_102_321
*662 FILLER_102_33
*663 FILLER_102_37
*664 FILLER_102_385
*665 FILLER_102_389
*666 FILLER_102_392
*667 FILLER_102_456
*668 FILLER_102_460
*669 FILLER_102_463
*670 FILLER_102_527
*671 FILLER_102_531
*672 FILLER_102_534
*673 FILLER_102_598
*674 FILLER_102_602
*675 FILLER_102_605
*676 FILLER_102_669
*677 FILLER_102_673
*678 FILLER_102_676
*679 FILLER_102_7
*680 FILLER_102_740
*681 FILLER_102_744
*682 FILLER_102_747
*683 FILLER_102_811
*684 FILLER_102_815
*685 FILLER_102_818
*686 FILLER_102_882
*687 FILLER_102_886
*688 FILLER_102_889
*689 FILLER_102_953
*690 FILLER_102_957
*691 FILLER_102_960
*692 FILLER_103_1028
*693 FILLER_103_1036
*694 FILLER_103_1044
*695 FILLER_103_137
*696 FILLER_103_141
*697 FILLER_103_144
*698 FILLER_103_2
*699 FILLER_103_208
*700 FILLER_103_212
*701 FILLER_103_215
*702 FILLER_103_279
*703 FILLER_103_283
*704 FILLER_103_286
*705 FILLER_103_350
*706 FILLER_103_354
*707 FILLER_103_357
*708 FILLER_103_421
*709 FILLER_103_425
*710 FILLER_103_428
*711 FILLER_103_492
*712 FILLER_103_496
*713 FILLER_103_499
*714 FILLER_103_563
*715 FILLER_103_567
*716 FILLER_103_570
*717 FILLER_103_634
*718 FILLER_103_638
*719 FILLER_103_641
*720 FILLER_103_66
*721 FILLER_103_70
*722 FILLER_103_705
*723 FILLER_103_709
*724 FILLER_103_712
*725 FILLER_103_73
*726 FILLER_103_776
*727 FILLER_103_780
*728 FILLER_103_783
*729 FILLER_103_847
*730 FILLER_103_851
*731 FILLER_103_854
*732 FILLER_103_918
*733 FILLER_103_922
*734 FILLER_103_925
*735 FILLER_103_989
*736 FILLER_103_993
*737 FILLER_103_996
*738 FILLER_104_101
*739 FILLER_104_1024
*740 FILLER_104_1028
*741 FILLER_104_1031
*742 FILLER_104_1039
*743 FILLER_104_1043
*744 FILLER_104_105
*745 FILLER_104_108
*746 FILLER_104_172
*747 FILLER_104_176
*748 FILLER_104_179
*749 FILLER_104_2
*750 FILLER_104_23
*751 FILLER_104_243
*752 FILLER_104_247
*753 FILLER_104_250
*754 FILLER_104_31
*755 FILLER_104_314
*756 FILLER_104_318
*757 FILLER_104_321
*758 FILLER_104_37
*759 FILLER_104_385
*760 FILLER_104_389
*761 FILLER_104_392
*762 FILLER_104_456
*763 FILLER_104_460
*764 FILLER_104_463
*765 FILLER_104_527
*766 FILLER_104_531
*767 FILLER_104_534
*768 FILLER_104_598
*769 FILLER_104_602
*770 FILLER_104_605
*771 FILLER_104_669
*772 FILLER_104_673
*773 FILLER_104_676
*774 FILLER_104_7
*775 FILLER_104_740
*776 FILLER_104_744
*777 FILLER_104_747
*778 FILLER_104_811
*779 FILLER_104_815
*780 FILLER_104_818
*781 FILLER_104_882
*782 FILLER_104_886
*783 FILLER_104_889
*784 FILLER_104_953
*785 FILLER_104_957
*786 FILLER_104_960
*787 FILLER_105_1028
*788 FILLER_105_1044
*789 FILLER_105_137
*790 FILLER_105_141
*791 FILLER_105_144
*792 FILLER_105_2
*793 FILLER_105_208
*794 FILLER_105_212
*795 FILLER_105_215
*796 FILLER_105_279
*797 FILLER_105_283
*798 FILLER_105_286
*799 FILLER_105_350
*800 FILLER_105_354
*801 FILLER_105_357
*802 FILLER_105_421
*803 FILLER_105_425
*804 FILLER_105_428
*805 FILLER_105_492
*806 FILLER_105_496
*807 FILLER_105_499
*808 FILLER_105_563
*809 FILLER_105_567
*810 FILLER_105_570
*811 FILLER_105_634
*812 FILLER_105_638
*813 FILLER_105_641
*814 FILLER_105_66
*815 FILLER_105_70
*816 FILLER_105_705
*817 FILLER_105_709
*818 FILLER_105_712
*819 FILLER_105_73
*820 FILLER_105_776
*821 FILLER_105_780
*822 FILLER_105_783
*823 FILLER_105_847
*824 FILLER_105_851
*825 FILLER_105_854
*826 FILLER_105_918
*827 FILLER_105_922
*828 FILLER_105_925
*829 FILLER_105_989
*830 FILLER_105_993
*831 FILLER_105_996
*832 FILLER_106_101
*833 FILLER_106_1024
*834 FILLER_106_1028
*835 FILLER_106_1031
*836 FILLER_106_1039
*837 FILLER_106_1043
*838 FILLER_106_105
*839 FILLER_106_108
*840 FILLER_106_172
*841 FILLER_106_176
*842 FILLER_106_179
*843 FILLER_106_2
*844 FILLER_106_243
*845 FILLER_106_247
*846 FILLER_106_250
*847 FILLER_106_314
*848 FILLER_106_318
*849 FILLER_106_321
*850 FILLER_106_34
*851 FILLER_106_37
*852 FILLER_106_385
*853 FILLER_106_389
*854 FILLER_106_392
*855 FILLER_106_456
*856 FILLER_106_460
*857 FILLER_106_463
*858 FILLER_106_527
*859 FILLER_106_531
*860 FILLER_106_534
*861 FILLER_106_598
*862 FILLER_106_602
*863 FILLER_106_605
*864 FILLER_106_669
*865 FILLER_106_673
*866 FILLER_106_676
*867 FILLER_106_740
*868 FILLER_106_744
*869 FILLER_106_747
*870 FILLER_106_811
*871 FILLER_106_815
*872 FILLER_106_818
*873 FILLER_106_882
*874 FILLER_106_886
*875 FILLER_106_889
*876 FILLER_106_953
*877 FILLER_106_957
*878 FILLER_106_960
*879 FILLER_107_1028
*880 FILLER_107_1044
*881 FILLER_107_137
*882 FILLER_107_141
*883 FILLER_107_144
*884 FILLER_107_2
*885 FILLER_107_208
*886 FILLER_107_212
*887 FILLER_107_215
*888 FILLER_107_279
*889 FILLER_107_283
*890 FILLER_107_286
*891 FILLER_107_350
*892 FILLER_107_354
*893 FILLER_107_357
*894 FILLER_107_421
*895 FILLER_107_425
*896 FILLER_107_428
*897 FILLER_107_492
*898 FILLER_107_496
*899 FILLER_107_499
*900 FILLER_107_563
*901 FILLER_107_567
*902 FILLER_107_570
*903 FILLER_107_634
*904 FILLER_107_638
*905 FILLER_107_641
*906 FILLER_107_66
*907 FILLER_107_70
*908 FILLER_107_705
*909 FILLER_107_709
*910 FILLER_107_712
*911 FILLER_107_73
*912 FILLER_107_776
*913 FILLER_107_780
*914 FILLER_107_783
*915 FILLER_107_847
*916 FILLER_107_851
*917 FILLER_107_854
*918 FILLER_107_918
*919 FILLER_107_922
*920 FILLER_107_925
*921 FILLER_107_989
*922 FILLER_107_993
*923 FILLER_107_996
*924 FILLER_108_101
*925 FILLER_108_1024
*926 FILLER_108_1028
*927 FILLER_108_1031
*928 FILLER_108_1039
*929 FILLER_108_1044
*930 FILLER_108_105
*931 FILLER_108_108
*932 FILLER_108_172
*933 FILLER_108_176
*934 FILLER_108_179
*935 FILLER_108_2
*936 FILLER_108_243
*937 FILLER_108_247
*938 FILLER_108_250
*939 FILLER_108_314
*940 FILLER_108_318
*941 FILLER_108_321
*942 FILLER_108_34
*943 FILLER_108_37
*944 FILLER_108_385
*945 FILLER_108_389
*946 FILLER_108_392
*947 FILLER_108_456
*948 FILLER_108_460
*949 FILLER_108_463
*950 FILLER_108_527
*951 FILLER_108_531
*952 FILLER_108_534
*953 FILLER_108_598
*954 FILLER_108_602
*955 FILLER_108_605
*956 FILLER_108_669
*957 FILLER_108_673
*958 FILLER_108_676
*959 FILLER_108_740
*960 FILLER_108_744
*961 FILLER_108_747
*962 FILLER_108_811
*963 FILLER_108_815
*964 FILLER_108_818
*965 FILLER_108_882
*966 FILLER_108_886
*967 FILLER_108_889
*968 FILLER_108_953
*969 FILLER_108_957
*970 FILLER_108_960
*971 FILLER_109_1028
*972 FILLER_109_1044
*973 FILLER_109_137
*974 FILLER_109_141
*975 FILLER_109_144
*976 FILLER_109_2
*977 FILLER_109_208
*978 FILLER_109_212
*979 FILLER_109_215
*980 FILLER_109_279
*981 FILLER_109_283
*982 FILLER_109_286
*983 FILLER_109_350
*984 FILLER_109_354
*985 FILLER_109_357
*986 FILLER_109_421
*987 FILLER_109_425
*988 FILLER_109_428
*989 FILLER_109_492
*990 FILLER_109_496
*991 FILLER_109_499
*992 FILLER_109_563
*993 FILLER_109_567
*994 FILLER_109_570
*995 FILLER_109_634
*996 FILLER_109_638
*997 FILLER_109_641
*998 FILLER_109_66
*999 FILLER_109_70
*1000 FILLER_109_705
*1001 FILLER_109_709
*1002 FILLER_109_712
*1003 FILLER_109_73
*1004 FILLER_109_776
*1005 FILLER_109_780
*1006 FILLER_109_783
*1007 FILLER_109_847
*1008 FILLER_109_851
*1009 FILLER_109_854
*1010 FILLER_109_918
*1011 FILLER_109_922
*1012 FILLER_109_925
*1013 FILLER_109_989
*1014 FILLER_109_993
*1015 FILLER_109_996
*1016 FILLER_10_101
*1017 FILLER_10_1024
*1018 FILLER_10_1028
*1019 FILLER_10_1031
*1020 FILLER_10_1039
*1021 FILLER_10_1043
*1022 FILLER_10_105
*1023 FILLER_10_108
*1024 FILLER_10_172
*1025 FILLER_10_176
*1026 FILLER_10_179
*1027 FILLER_10_2
*1028 FILLER_10_23
*1029 FILLER_10_243
*1030 FILLER_10_247
*1031 FILLER_10_250
*1032 FILLER_10_31
*1033 FILLER_10_314
*1034 FILLER_10_318
*1035 FILLER_10_321
*1036 FILLER_10_37
*1037 FILLER_10_385
*1038 FILLER_10_389
*1039 FILLER_10_392
*1040 FILLER_10_456
*1041 FILLER_10_460
*1042 FILLER_10_463
*1043 FILLER_10_527
*1044 FILLER_10_531
*1045 FILLER_10_534
*1046 FILLER_10_598
*1047 FILLER_10_602
*1048 FILLER_10_605
*1049 FILLER_10_669
*1050 FILLER_10_673
*1051 FILLER_10_676
*1052 FILLER_10_7
*1053 FILLER_10_740
*1054 FILLER_10_744
*1055 FILLER_10_747
*1056 FILLER_10_811
*1057 FILLER_10_815
*1058 FILLER_10_818
*1059 FILLER_10_882
*1060 FILLER_10_886
*1061 FILLER_10_889
*1062 FILLER_10_953
*1063 FILLER_10_957
*1064 FILLER_10_960
*1065 FILLER_110_101
*1066 FILLER_110_1024
*1067 FILLER_110_1028
*1068 FILLER_110_1031
*1069 FILLER_110_1039
*1070 FILLER_110_1043
*1071 FILLER_110_105
*1072 FILLER_110_108
*1073 FILLER_110_172
*1074 FILLER_110_176
*1075 FILLER_110_179
*1076 FILLER_110_2
*1077 FILLER_110_243
*1078 FILLER_110_247
*1079 FILLER_110_250
*1080 FILLER_110_314
*1081 FILLER_110_318
*1082 FILLER_110_321
*1083 FILLER_110_34
*1084 FILLER_110_37
*1085 FILLER_110_385
*1086 FILLER_110_389
*1087 FILLER_110_392
*1088 FILLER_110_456
*1089 FILLER_110_460
*1090 FILLER_110_463
*1091 FILLER_110_527
*1092 FILLER_110_531
*1093 FILLER_110_534
*1094 FILLER_110_598
*1095 FILLER_110_602
*1096 FILLER_110_605
*1097 FILLER_110_669
*1098 FILLER_110_673
*1099 FILLER_110_676
*1100 FILLER_110_740
*1101 FILLER_110_744
*1102 FILLER_110_747
*1103 FILLER_110_811
*1104 FILLER_110_815
*1105 FILLER_110_818
*1106 FILLER_110_882
*1107 FILLER_110_886
*1108 FILLER_110_889
*1109 FILLER_110_953
*1110 FILLER_110_957
*1111 FILLER_110_960
*1112 FILLER_111_1028
*1113 FILLER_111_1044
*1114 FILLER_111_137
*1115 FILLER_111_141
*1116 FILLER_111_144
*1117 FILLER_111_2
*1118 FILLER_111_208
*1119 FILLER_111_212
*1120 FILLER_111_215
*1121 FILLER_111_279
*1122 FILLER_111_283
*1123 FILLER_111_286
*1124 FILLER_111_350
*1125 FILLER_111_354
*1126 FILLER_111_357
*1127 FILLER_111_421
*1128 FILLER_111_425
*1129 FILLER_111_428
*1130 FILLER_111_492
*1131 FILLER_111_496
*1132 FILLER_111_499
*1133 FILLER_111_563
*1134 FILLER_111_567
*1135 FILLER_111_570
*1136 FILLER_111_634
*1137 FILLER_111_638
*1138 FILLER_111_641
*1139 FILLER_111_66
*1140 FILLER_111_70
*1141 FILLER_111_705
*1142 FILLER_111_709
*1143 FILLER_111_712
*1144 FILLER_111_73
*1145 FILLER_111_776
*1146 FILLER_111_780
*1147 FILLER_111_783
*1148 FILLER_111_847
*1149 FILLER_111_851
*1150 FILLER_111_854
*1151 FILLER_111_918
*1152 FILLER_111_922
*1153 FILLER_111_925
*1154 FILLER_111_989
*1155 FILLER_111_993
*1156 FILLER_111_996
*1157 FILLER_112_101
*1158 FILLER_112_1024
*1159 FILLER_112_1028
*1160 FILLER_112_1031
*1161 FILLER_112_1039
*1162 FILLER_112_1044
*1163 FILLER_112_105
*1164 FILLER_112_108
*1165 FILLER_112_172
*1166 FILLER_112_176
*1167 FILLER_112_179
*1168 FILLER_112_2
*1169 FILLER_112_23
*1170 FILLER_112_243
*1171 FILLER_112_247
*1172 FILLER_112_250
*1173 FILLER_112_31
*1174 FILLER_112_314
*1175 FILLER_112_318
*1176 FILLER_112_321
*1177 FILLER_112_37
*1178 FILLER_112_385
*1179 FILLER_112_389
*1180 FILLER_112_392
*1181 FILLER_112_456
*1182 FILLER_112_460
*1183 FILLER_112_463
*1184 FILLER_112_527
*1185 FILLER_112_531
*1186 FILLER_112_534
*1187 FILLER_112_598
*1188 FILLER_112_602
*1189 FILLER_112_605
*1190 FILLER_112_669
*1191 FILLER_112_673
*1192 FILLER_112_676
*1193 FILLER_112_7
*1194 FILLER_112_740
*1195 FILLER_112_744
*1196 FILLER_112_747
*1197 FILLER_112_811
*1198 FILLER_112_815
*1199 FILLER_112_818
*1200 FILLER_112_882
*1201 FILLER_112_886
*1202 FILLER_112_889
*1203 FILLER_112_953
*1204 FILLER_112_957
*1205 FILLER_112_960
*1206 FILLER_113_1028
*1207 FILLER_113_1044
*1208 FILLER_113_137
*1209 FILLER_113_141
*1210 FILLER_113_144
*1211 FILLER_113_2
*1212 FILLER_113_208
*1213 FILLER_113_212
*1214 FILLER_113_215
*1215 FILLER_113_279
*1216 FILLER_113_283
*1217 FILLER_113_286
*1218 FILLER_113_350
*1219 FILLER_113_354
*1220 FILLER_113_357
*1221 FILLER_113_421
*1222 FILLER_113_425
*1223 FILLER_113_428
*1224 FILLER_113_492
*1225 FILLER_113_496
*1226 FILLER_113_499
*1227 FILLER_113_563
*1228 FILLER_113_567
*1229 FILLER_113_570
*1230 FILLER_113_634
*1231 FILLER_113_638
*1232 FILLER_113_641
*1233 FILLER_113_66
*1234 FILLER_113_70
*1235 FILLER_113_705
*1236 FILLER_113_709
*1237 FILLER_113_712
*1238 FILLER_113_73
*1239 FILLER_113_776
*1240 FILLER_113_780
*1241 FILLER_113_783
*1242 FILLER_113_847
*1243 FILLER_113_851
*1244 FILLER_113_854
*1245 FILLER_113_918
*1246 FILLER_113_922
*1247 FILLER_113_925
*1248 FILLER_113_989
*1249 FILLER_113_993
*1250 FILLER_113_996
*1251 FILLER_114_101
*1252 FILLER_114_1024
*1253 FILLER_114_1028
*1254 FILLER_114_1031
*1255 FILLER_114_1039
*1256 FILLER_114_1043
*1257 FILLER_114_105
*1258 FILLER_114_108
*1259 FILLER_114_172
*1260 FILLER_114_176
*1261 FILLER_114_179
*1262 FILLER_114_2
*1263 FILLER_114_23
*1264 FILLER_114_243
*1265 FILLER_114_247
*1266 FILLER_114_250
*1267 FILLER_114_31
*1268 FILLER_114_314
*1269 FILLER_114_318
*1270 FILLER_114_321
*1271 FILLER_114_37
*1272 FILLER_114_385
*1273 FILLER_114_389
*1274 FILLER_114_392
*1275 FILLER_114_456
*1276 FILLER_114_460
*1277 FILLER_114_463
*1278 FILLER_114_527
*1279 FILLER_114_531
*1280 FILLER_114_534
*1281 FILLER_114_598
*1282 FILLER_114_602
*1283 FILLER_114_605
*1284 FILLER_114_669
*1285 FILLER_114_673
*1286 FILLER_114_676
*1287 FILLER_114_7
*1288 FILLER_114_740
*1289 FILLER_114_744
*1290 FILLER_114_747
*1291 FILLER_114_811
*1292 FILLER_114_815
*1293 FILLER_114_818
*1294 FILLER_114_882
*1295 FILLER_114_886
*1296 FILLER_114_889
*1297 FILLER_114_953
*1298 FILLER_114_957
*1299 FILLER_114_960
*1300 FILLER_115_1028
*1301 FILLER_115_1044
*1302 FILLER_115_137
*1303 FILLER_115_141
*1304 FILLER_115_144
*1305 FILLER_115_2
*1306 FILLER_115_208
*1307 FILLER_115_212
*1308 FILLER_115_215
*1309 FILLER_115_279
*1310 FILLER_115_283
*1311 FILLER_115_286
*1312 FILLER_115_350
*1313 FILLER_115_354
*1314 FILLER_115_357
*1315 FILLER_115_421
*1316 FILLER_115_425
*1317 FILLER_115_428
*1318 FILLER_115_492
*1319 FILLER_115_496
*1320 FILLER_115_499
*1321 FILLER_115_563
*1322 FILLER_115_567
*1323 FILLER_115_570
*1324 FILLER_115_634
*1325 FILLER_115_638
*1326 FILLER_115_641
*1327 FILLER_115_66
*1328 FILLER_115_70
*1329 FILLER_115_705
*1330 FILLER_115_709
*1331 FILLER_115_712
*1332 FILLER_115_73
*1333 FILLER_115_776
*1334 FILLER_115_780
*1335 FILLER_115_783
*1336 FILLER_115_847
*1337 FILLER_115_851
*1338 FILLER_115_854
*1339 FILLER_115_918
*1340 FILLER_115_922
*1341 FILLER_115_925
*1342 FILLER_115_989
*1343 FILLER_115_993
*1344 FILLER_115_996
*1345 FILLER_116_101
*1346 FILLER_116_1024
*1347 FILLER_116_1028
*1348 FILLER_116_1031
*1349 FILLER_116_1039
*1350 FILLER_116_1043
*1351 FILLER_116_105
*1352 FILLER_116_108
*1353 FILLER_116_172
*1354 FILLER_116_176
*1355 FILLER_116_179
*1356 FILLER_116_2
*1357 FILLER_116_243
*1358 FILLER_116_247
*1359 FILLER_116_250
*1360 FILLER_116_314
*1361 FILLER_116_318
*1362 FILLER_116_321
*1363 FILLER_116_34
*1364 FILLER_116_37
*1365 FILLER_116_385
*1366 FILLER_116_389
*1367 FILLER_116_392
*1368 FILLER_116_456
*1369 FILLER_116_460
*1370 FILLER_116_463
*1371 FILLER_116_527
*1372 FILLER_116_531
*1373 FILLER_116_534
*1374 FILLER_116_598
*1375 FILLER_116_602
*1376 FILLER_116_605
*1377 FILLER_116_669
*1378 FILLER_116_673
*1379 FILLER_116_676
*1380 FILLER_116_740
*1381 FILLER_116_744
*1382 FILLER_116_747
*1383 FILLER_116_811
*1384 FILLER_116_815
*1385 FILLER_116_818
*1386 FILLER_116_882
*1387 FILLER_116_886
*1388 FILLER_116_889
*1389 FILLER_116_953
*1390 FILLER_116_957
*1391 FILLER_116_960
*1392 FILLER_117_1028
*1393 FILLER_117_1044
*1394 FILLER_117_137
*1395 FILLER_117_141
*1396 FILLER_117_144
*1397 FILLER_117_2
*1398 FILLER_117_208
*1399 FILLER_117_212
*1400 FILLER_117_215
*1401 FILLER_117_279
*1402 FILLER_117_283
*1403 FILLER_117_286
*1404 FILLER_117_350
*1405 FILLER_117_354
*1406 FILLER_117_357
*1407 FILLER_117_421
*1408 FILLER_117_425
*1409 FILLER_117_428
*1410 FILLER_117_492
*1411 FILLER_117_496
*1412 FILLER_117_499
*1413 FILLER_117_563
*1414 FILLER_117_567
*1415 FILLER_117_570
*1416 FILLER_117_634
*1417 FILLER_117_638
*1418 FILLER_117_641
*1419 FILLER_117_7
*1420 FILLER_117_705
*1421 FILLER_117_709
*1422 FILLER_117_712
*1423 FILLER_117_73
*1424 FILLER_117_776
*1425 FILLER_117_780
*1426 FILLER_117_783
*1427 FILLER_117_847
*1428 FILLER_117_851
*1429 FILLER_117_854
*1430 FILLER_117_918
*1431 FILLER_117_922
*1432 FILLER_117_925
*1433 FILLER_117_989
*1434 FILLER_117_993
*1435 FILLER_117_996
*1436 FILLER_118_101
*1437 FILLER_118_1024
*1438 FILLER_118_1028
*1439 FILLER_118_1031
*1440 FILLER_118_1039
*1441 FILLER_118_1044
*1442 FILLER_118_105
*1443 FILLER_118_108
*1444 FILLER_118_172
*1445 FILLER_118_176
*1446 FILLER_118_179
*1447 FILLER_118_2
*1448 FILLER_118_243
*1449 FILLER_118_247
*1450 FILLER_118_250
*1451 FILLER_118_314
*1452 FILLER_118_318
*1453 FILLER_118_321
*1454 FILLER_118_34
*1455 FILLER_118_37
*1456 FILLER_118_385
*1457 FILLER_118_389
*1458 FILLER_118_392
*1459 FILLER_118_456
*1460 FILLER_118_460
*1461 FILLER_118_463
*1462 FILLER_118_527
*1463 FILLER_118_531
*1464 FILLER_118_534
*1465 FILLER_118_598
*1466 FILLER_118_602
*1467 FILLER_118_605
*1468 FILLER_118_669
*1469 FILLER_118_673
*1470 FILLER_118_676
*1471 FILLER_118_740
*1472 FILLER_118_744
*1473 FILLER_118_747
*1474 FILLER_118_811
*1475 FILLER_118_815
*1476 FILLER_118_818
*1477 FILLER_118_882
*1478 FILLER_118_886
*1479 FILLER_118_889
*1480 FILLER_118_953
*1481 FILLER_118_957
*1482 FILLER_118_960
*1483 FILLER_119_1028
*1484 FILLER_119_1044
*1485 FILLER_119_137
*1486 FILLER_119_141
*1487 FILLER_119_144
*1488 FILLER_119_2
*1489 FILLER_119_208
*1490 FILLER_119_212
*1491 FILLER_119_215
*1492 FILLER_119_279
*1493 FILLER_119_283
*1494 FILLER_119_286
*1495 FILLER_119_350
*1496 FILLER_119_354
*1497 FILLER_119_357
*1498 FILLER_119_421
*1499 FILLER_119_425
*1500 FILLER_119_428
*1501 FILLER_119_492
*1502 FILLER_119_496
*1503 FILLER_119_499
*1504 FILLER_119_563
*1505 FILLER_119_567
*1506 FILLER_119_570
*1507 FILLER_119_634
*1508 FILLER_119_638
*1509 FILLER_119_641
*1510 FILLER_119_7
*1511 FILLER_119_705
*1512 FILLER_119_709
*1513 FILLER_119_712
*1514 FILLER_119_73
*1515 FILLER_119_776
*1516 FILLER_119_780
*1517 FILLER_119_783
*1518 FILLER_119_847
*1519 FILLER_119_851
*1520 FILLER_119_854
*1521 FILLER_119_918
*1522 FILLER_119_922
*1523 FILLER_119_925
*1524 FILLER_119_989
*1525 FILLER_119_993
*1526 FILLER_119_996
*1527 FILLER_11_1028
*1528 FILLER_11_1036
*1529 FILLER_11_1044
*1530 FILLER_11_137
*1531 FILLER_11_141
*1532 FILLER_11_144
*1533 FILLER_11_2
*1534 FILLER_11_208
*1535 FILLER_11_212
*1536 FILLER_11_215
*1537 FILLER_11_279
*1538 FILLER_11_283
*1539 FILLER_11_286
*1540 FILLER_11_350
*1541 FILLER_11_354
*1542 FILLER_11_357
*1543 FILLER_11_421
*1544 FILLER_11_425
*1545 FILLER_11_428
*1546 FILLER_11_492
*1547 FILLER_11_496
*1548 FILLER_11_499
*1549 FILLER_11_563
*1550 FILLER_11_567
*1551 FILLER_11_570
*1552 FILLER_11_634
*1553 FILLER_11_638
*1554 FILLER_11_641
*1555 FILLER_11_66
*1556 FILLER_11_70
*1557 FILLER_11_705
*1558 FILLER_11_709
*1559 FILLER_11_712
*1560 FILLER_11_73
*1561 FILLER_11_776
*1562 FILLER_11_780
*1563 FILLER_11_783
*1564 FILLER_11_847
*1565 FILLER_11_851
*1566 FILLER_11_854
*1567 FILLER_11_918
*1568 FILLER_11_922
*1569 FILLER_11_925
*1570 FILLER_11_989
*1571 FILLER_11_993
*1572 FILLER_11_996
*1573 FILLER_120_101
*1574 FILLER_120_1024
*1575 FILLER_120_1028
*1576 FILLER_120_1031
*1577 FILLER_120_1039
*1578 FILLER_120_1044
*1579 FILLER_120_105
*1580 FILLER_120_108
*1581 FILLER_120_172
*1582 FILLER_120_176
*1583 FILLER_120_179
*1584 FILLER_120_2
*1585 FILLER_120_243