*SPEF "ieee 1481-1999"
*DESIGN "tiny_user_project"
*DATE "11:11:11 Fri 11 11, 1111"
*VENDOR "OpenRCX"
*PROGRAM "Parallel Extraction"
*VERSION "1.0"
*DESIGN_FLOW "NAME_SCOPE LOCAL" "PIN_CAP NONE"
*DIVIDER /
*DELIMITER :
*BUS_DELIMITER []
*T_UNIT 1 NS
*C_UNIT 1 PF
*R_UNIT 1 OHM
*L_UNIT 1 HENRY

*NAME_MAP
*1 io_in[0]
*2 io_in[10]
*3 io_in[11]
*4 io_in[12]
*5 io_in[13]
*6 io_in[14]
*7 io_in[15]
*8 io_in[16]
*9 io_in[17]
*10 io_in[18]
*11 io_in[19]
*12 io_in[1]
*13 io_in[20]
*14 io_in[21]
*15 io_in[22]
*16 io_in[23]
*17 io_in[24]
*18 io_in[25]
*19 io_in[26]
*20 io_in[27]
*21 io_in[28]
*22 io_in[29]
*23 io_in[2]
*24 io_in[30]
*25 io_in[31]
*26 io_in[32]
*27 io_in[33]
*28 io_in[34]
*29 io_in[35]
*30 io_in[36]
*31 io_in[37]
*32 io_in[3]
*33 io_in[4]
*34 io_in[5]
*35 io_in[6]
*36 io_in[7]
*37 io_in[8]
*38 io_in[9]
*39 net35
*40 net45
*41 net46
*42 net47
*43 net48
*44 net49
*45 net50
*46 net51
*47 net52
*48 net53
*49 net54
*50 net36
*51 net55
*52 net56
*53 net57
*54 net58
*55 net59
*56 net60
*57 net61
*58 net62
*59 net63
*60 net64
*61 net37
*62 net65
*63 net66
*64 net67
*65 net68
*66 net69
*67 net70
*68 net71
*69 net72
*70 net38
*71 net39
*72 net40
*73 net41
*74 net42
*75 net43
*76 net44
*77 net73
*78 net7
*79 net8
*80 net9
*81 net10
*82 net11
*83 net12
*84 net13
*85 net14
*86 net15
*87 net16
*88 net74
*89 net17
*90 net18
*91 net19
*92 net20
*93 net21
*94 net22
*95 net23
*96 net24
*97 net25
*98 net26
*99 net75
*100 net27
*101 net28
*102 net29
*103 net30
*104 net31
*105 net32
*106 net33
*107 net34
*108 net76
*109 net1
*110 net2
*111 net3
*112 net4
*113 net5
*114 net6
*115 FILLER_0_101
*116 FILLER_0_107
*117 FILLER_0_119
*118 FILLER_0_13
*119 FILLER_0_131
*120 FILLER_0_139
*121 FILLER_0_142
*122 FILLER_0_144
*123 FILLER_0_149
*124 FILLER_0_165
*125 FILLER_0_17
*126 FILLER_0_173
*127 FILLER_0_177
*128 FILLER_0_182
*129 FILLER_0_190
*130 FILLER_0_192
*131 FILLER_0_197
*132 FILLER_0_2
*133 FILLER_0_205
*134 FILLER_0_209
*135 FILLER_0_212
*136 FILLER_0_220
*137 FILLER_0_222
*138 FILLER_0_227
*139 FILLER_0_23
*140 FILLER_0_243
*141 FILLER_0_247
*142 FILLER_0_252
*143 FILLER_0_268
*144 FILLER_0_270
*145 FILLER_0_275
*146 FILLER_0_279
*147 FILLER_0_282
*148 FILLER_0_298
*149 FILLER_0_300
*150 FILLER_0_305
*151 FILLER_0_31
*152 FILLER_0_313
*153 FILLER_0_317
*154 FILLER_0_325
*155 FILLER_0_329
*156 FILLER_0_335
*157 FILLER_0_343
*158 FILLER_0_347
*159 FILLER_0_349
*160 FILLER_0_352
*161 FILLER_0_357
*162 FILLER_0_365
*163 FILLER_0_37
*164 FILLER_0_371
*165 FILLER_0_383
*166 FILLER_0_387
*167 FILLER_0_395
*168 FILLER_0_401
*169 FILLER_0_413
*170 FILLER_0_419
*171 FILLER_0_42
*172 FILLER_0_58
*173 FILLER_0_66
*174 FILLER_0_7
*175 FILLER_0_72
*176 FILLER_0_77
*177 FILLER_0_93
*178 FILLER_10_101
*179 FILLER_10_105
*180 FILLER_10_108
*181 FILLER_10_172
*182 FILLER_10_176
*183 FILLER_10_179
*184 FILLER_10_2
*185 FILLER_10_243
*186 FILLER_10_247
*187 FILLER_10_250
*188 FILLER_10_314
*189 FILLER_10_318
*190 FILLER_10_321
*191 FILLER_10_34
*192 FILLER_10_37
*193 FILLER_10_385
*194 FILLER_10_389
*195 FILLER_10_392
*196 FILLER_10_408
*197 FILLER_10_416
*198 FILLER_11_137
*199 FILLER_11_141
*200 FILLER_11_144
*201 FILLER_11_2
*202 FILLER_11_208
*203 FILLER_11_212
*204 FILLER_11_215
*205 FILLER_11_279
*206 FILLER_11_283
*207 FILLER_11_286
*208 FILLER_11_350
*209 FILLER_11_354
*210 FILLER_11_357
*211 FILLER_11_389
*212 FILLER_11_405
*213 FILLER_11_413
*214 FILLER_11_419
*215 FILLER_11_66
*216 FILLER_11_70
*217 FILLER_11_73
*218 FILLER_12_101
*219 FILLER_12_105
*220 FILLER_12_108
*221 FILLER_12_172
*222 FILLER_12_176
*223 FILLER_12_179
*224 FILLER_12_2
*225 FILLER_12_243
*226 FILLER_12_247
*227 FILLER_12_250
*228 FILLER_12_314
*229 FILLER_12_318
*230 FILLER_12_321
*231 FILLER_12_34
*232 FILLER_12_37
*233 FILLER_12_385
*234 FILLER_12_389
*235 FILLER_12_392
*236 FILLER_12_408
*237 FILLER_12_412
*238 FILLER_12_414
*239 FILLER_12_419
*240 FILLER_13_137
*241 FILLER_13_141
*242 FILLER_13_144
*243 FILLER_13_2
*244 FILLER_13_208
*245 FILLER_13_212
*246 FILLER_13_215
*247 FILLER_13_279
*248 FILLER_13_283
*249 FILLER_13_286
*250 FILLER_13_350
*251 FILLER_13_354
*252 FILLER_13_357
*253 FILLER_13_389
*254 FILLER_13_405
*255 FILLER_13_413
*256 FILLER_13_417
*257 FILLER_13_419
*258 FILLER_13_66
*259 FILLER_13_70
*260 FILLER_13_73
*261 FILLER_14_101
*262 FILLER_14_105
*263 FILLER_14_108
*264 FILLER_14_172
*265 FILLER_14_176
*266 FILLER_14_179
*267 FILLER_14_2
*268 FILLER_14_23
*269 FILLER_14_243
*270 FILLER_14_247
*271 FILLER_14_250
*272 FILLER_14_31
*273 FILLER_14_314
*274 FILLER_14_318
*275 FILLER_14_321
*276 FILLER_14_37
*277 FILLER_14_385
*278 FILLER_14_389
*279 FILLER_14_392
*280 FILLER_14_408
*281 FILLER_14_416
*282 FILLER_14_7
*283 FILLER_15_137
*284 FILLER_15_141
*285 FILLER_15_144
*286 FILLER_15_2
*287 FILLER_15_208
*288 FILLER_15_212
*289 FILLER_15_215
*290 FILLER_15_279
*291 FILLER_15_283
*292 FILLER_15_286
*293 FILLER_15_350
*294 FILLER_15_354
*295 FILLER_15_357
*296 FILLER_15_389
*297 FILLER_15_405
*298 FILLER_15_413
*299 FILLER_15_417
*300 FILLER_15_419
*301 FILLER_15_66
*302 FILLER_15_70
*303 FILLER_15_73
*304 FILLER_16_101
*305 FILLER_16_105
*306 FILLER_16_108
*307 FILLER_16_172
*308 FILLER_16_176
*309 FILLER_16_179
*310 FILLER_16_2
*311 FILLER_16_23
*312 FILLER_16_243
*313 FILLER_16_247
*314 FILLER_16_250
*315 FILLER_16_31
*316 FILLER_16_314
*317 FILLER_16_318
*318 FILLER_16_321
*319 FILLER_16_37
*320 FILLER_16_385
*321 FILLER_16_389
*322 FILLER_16_392
*323 FILLER_16_408
*324 FILLER_16_416
*325 FILLER_16_7
*326 FILLER_17_137
*327 FILLER_17_141
*328 FILLER_17_144
*329 FILLER_17_2
*330 FILLER_17_208
*331 FILLER_17_212
*332 FILLER_17_215
*333 FILLER_17_279
*334 FILLER_17_283
*335 FILLER_17_286
*336 FILLER_17_350
*337 FILLER_17_354
*338 FILLER_17_357
*339 FILLER_17_389
*340 FILLER_17_405
*341 FILLER_17_413
*342 FILLER_17_417
*343 FILLER_17_419
*344 FILLER_17_66
*345 FILLER_17_70
*346 FILLER_17_73
*347 FILLER_18_101
*348 FILLER_18_105
*349 FILLER_18_108
*350 FILLER_18_172
*351 FILLER_18_176
*352 FILLER_18_179
*353 FILLER_18_2
*354 FILLER_18_23
*355 FILLER_18_243
*356 FILLER_18_247
*357 FILLER_18_250
*358 FILLER_18_31
*359 FILLER_18_314
*360 FILLER_18_318
*361 FILLER_18_321
*362 FILLER_18_37
*363 FILLER_18_385
*364 FILLER_18_389
*365 FILLER_18_392
*366 FILLER_18_408
*367 FILLER_18_412
*368 FILLER_18_414
*369 FILLER_18_419
*370 FILLER_18_7
*371 FILLER_19_137
*372 FILLER_19_141
*373 FILLER_19_144
*374 FILLER_19_2
*375 FILLER_19_208
*376 FILLER_19_212
*377 FILLER_19_215
*378 FILLER_19_279
*379 FILLER_19_283
*380 FILLER_19_286
*381 FILLER_19_350
*382 FILLER_19_354
*383 FILLER_19_357
*384 FILLER_19_389
*385 FILLER_19_405
*386 FILLER_19_413
*387 FILLER_19_419
*388 FILLER_19_66
*389 FILLER_19_70
*390 FILLER_19_73
*391 FILLER_1_137
*392 FILLER_1_141
*393 FILLER_1_144
*394 FILLER_1_2
*395 FILLER_1_208
*396 FILLER_1_212
*397 FILLER_1_215
*398 FILLER_1_279
*399 FILLER_1_283
*400 FILLER_1_286
*401 FILLER_1_350
*402 FILLER_1_354
*403 FILLER_1_357
*404 FILLER_1_389
*405 FILLER_1_405
*406 FILLER_1_413
*407 FILLER_1_417
*408 FILLER_1_419
*409 FILLER_1_7
*410 FILLER_1_73
*411 FILLER_20_101
*412 FILLER_20_105
*413 FILLER_20_108
*414 FILLER_20_172
*415 FILLER_20_176
*416 FILLER_20_179
*417 FILLER_20_2
*418 FILLER_20_23
*419 FILLER_20_243
*420 FILLER_20_247
*421 FILLER_20_250
*422 FILLER_20_31
*423 FILLER_20_314
*424 FILLER_20_318
*425 FILLER_20_321
*426 FILLER_20_37
*427 FILLER_20_385
*428 FILLER_20_389
*429 FILLER_20_392
*430 FILLER_20_408
*431 FILLER_20_416
*432 FILLER_20_7
*433 FILLER_21_137
*434 FILLER_21_141
*435 FILLER_21_144
*436 FILLER_21_2
*437 FILLER_21_208
*438 FILLER_21_212
*439 FILLER_21_215
*440 FILLER_21_279
*441 FILLER_21_283
*442 FILLER_21_286
*443 FILLER_21_350
*444 FILLER_21_354
*445 FILLER_21_357
*446 FILLER_21_389
*447 FILLER_21_405
*448 FILLER_21_413
*449 FILLER_21_417
*450 FILLER_21_419
*451 FILLER_21_66
*452 FILLER_21_70
*453 FILLER_21_73
*454 FILLER_22_101
*455 FILLER_22_105
*456 FILLER_22_108
*457 FILLER_22_172
*458 FILLER_22_176
*459 FILLER_22_179
*460 FILLER_22_2
*461 FILLER_22_243
*462 FILLER_22_247
*463 FILLER_22_250
*464 FILLER_22_314
*465 FILLER_22_318
*466 FILLER_22_321
*467 FILLER_22_34
*468 FILLER_22_37
*469 FILLER_22_385
*470 FILLER_22_389
*471 FILLER_22_392
*472 FILLER_22_408
*473 FILLER_22_416
*474 FILLER_23_137
*475 FILLER_23_141
*476 FILLER_23_144
*477 FILLER_23_2
*478 FILLER_23_208
*479 FILLER_23_212
*480 FILLER_23_215
*481 FILLER_23_279
*482 FILLER_23_283
*483 FILLER_23_286
*484 FILLER_23_350
*485 FILLER_23_354
*486 FILLER_23_357
*487 FILLER_23_389
*488 FILLER_23_405
*489 FILLER_23_413
*490 FILLER_23_417
*491 FILLER_23_419
*492 FILLER_23_7
*493 FILLER_23_73
*494 FILLER_24_101
*495 FILLER_24_105
*496 FILLER_24_108
*497 FILLER_24_172
*498 FILLER_24_176
*499 FILLER_24_179
*500 FILLER_24_2
*501 FILLER_24_243
*502 FILLER_24_247
*503 FILLER_24_250
*504 FILLER_24_314
*505 FILLER_24_318
*506 FILLER_24_321
*507 FILLER_24_34
*508 FILLER_24_37
*509 FILLER_24_385
*510 FILLER_24_389
*511 FILLER_24_392
*512 FILLER_24_408
*513 FILLER_24_412
*514 FILLER_24_414
*515 FILLER_24_419
*516 FILLER_25_137
*517 FILLER_25_141
*518 FILLER_25_144
*519 FILLER_25_2
*520 FILLER_25_208
*521 FILLER_25_212
*522 FILLER_25_215
*523 FILLER_25_279
*524 FILLER_25_283
*525 FILLER_25_286
*526 FILLER_25_350
*527 FILLER_25_354
*528 FILLER_25_357
*529 FILLER_25_389
*530 FILLER_25_405
*531 FILLER_25_413
*532 FILLER_25_417
*533 FILLER_25_419
*534 FILLER_25_7
*535 FILLER_25_73
*536 FILLER_26_101
*537 FILLER_26_105
*538 FILLER_26_108
*539 FILLER_26_172
*540 FILLER_26_176
*541 FILLER_26_179
*542 FILLER_26_2
*543 FILLER_26_243
*544 FILLER_26_247
*545 FILLER_26_250
*546 FILLER_26_314
*547 FILLER_26_318
*548 FILLER_26_321
*549 FILLER_26_34
*550 FILLER_26_37
*551 FILLER_26_385
*552 FILLER_26_389
*553 FILLER_26_392
*554 FILLER_26_408
*555 FILLER_26_412
*556 FILLER_26_414
*557 FILLER_26_419
*558 FILLER_27_137
*559 FILLER_27_141
*560 FILLER_27_144
*561 FILLER_27_2
*562 FILLER_27_208
*563 FILLER_27_212
*564 FILLER_27_215
*565 FILLER_27_279
*566 FILLER_27_283
*567 FILLER_27_286
*568 FILLER_27_350
*569 FILLER_27_354
*570 FILLER_27_357
*571 FILLER_27_389
*572 FILLER_27_405
*573 FILLER_27_413
*574 FILLER_27_417
*575 FILLER_27_419
*576 FILLER_27_7
*577 FILLER_27_73
*578 FILLER_28_101
*579 FILLER_28_105
*580 FILLER_28_108
*581 FILLER_28_172
*582 FILLER_28_176
*583 FILLER_28_179
*584 FILLER_28_2
*585 FILLER_28_243
*586 FILLER_28_247
*587 FILLER_28_250
*588 FILLER_28_314
*589 FILLER_28_318
*590 FILLER_28_321
*591 FILLER_28_34
*592 FILLER_28_37
*593 FILLER_28_385
*594 FILLER_28_389
*595 FILLER_28_392
*596 FILLER_28_408
*597 FILLER_28_416
*598 FILLER_29_137
*599 FILLER_29_141
*600 FILLER_29_144
*601 FILLER_29_2
*602 FILLER_29_208
*603 FILLER_29_212
*604 FILLER_29_215
*605 FILLER_29_279
*606 FILLER_29_283
*607 FILLER_29_286
*608 FILLER_29_350
*609 FILLER_29_354
*610 FILLER_29_357
*611 FILLER_29_389
*612 FILLER_29_405
*613 FILLER_29_413
*614 FILLER_29_417
*615 FILLER_29_419
*616 FILLER_29_66
*617 FILLER_29_70
*618 FILLER_29_73
*619 FILLER_2_101
*620 FILLER_2_105
*621 FILLER_2_108
*622 FILLER_2_172
*623 FILLER_2_176
*624 FILLER_2_179
*625 FILLER_2_2
*626 FILLER_2_243
*627 FILLER_2_247
*628 FILLER_2_250
*629 FILLER_2_314
*630 FILLER_2_318
*631 FILLER_2_321
*632 FILLER_2_34
*633 FILLER_2_37
*634 FILLER_2_385
*635 FILLER_2_389
*636 FILLER_2_392
*637 FILLER_2_408
*638 FILLER_2_416
*639 FILLER_30_101
*640 FILLER_30_105
*641 FILLER_30_108
*642 FILLER_30_172
*643 FILLER_30_176
*644 FILLER_30_179
*645 FILLER_30_2
*646 FILLER_30_23
*647 FILLER_30_243
*648 FILLER_30_247
*649 FILLER_30_250
*650 FILLER_30_31
*651 FILLER_30_314
*652 FILLER_30_318
*653 FILLER_30_321
*654 FILLER_30_37
*655 FILLER_30_385
*656 FILLER_30_389
*657 FILLER_30_392
*658 FILLER_30_408
*659 FILLER_30_412
*660 FILLER_30_414
*661 FILLER_30_419
*662 FILLER_30_7
*663 FILLER_31_137
*664 FILLER_31_141
*665 FILLER_31_144
*666 FILLER_31_2
*667 FILLER_31_208
*668 FILLER_31_212
*669 FILLER_31_215
*670 FILLER_31_279
*671 FILLER_31_283
*672 FILLER_31_286
*673 FILLER_31_350
*674 FILLER_31_354
*675 FILLER_31_357
*676 FILLER_31_389
*677 FILLER_31_405
*678 FILLER_31_413
*679 FILLER_31_417
*680 FILLER_31_419
*681 FILLER_31_66
*682 FILLER_31_70
*683 FILLER_31_73
*684 FILLER_32_101
*685 FILLER_32_105
*686 FILLER_32_108
*687 FILLER_32_172
*688 FILLER_32_176
*689 FILLER_32_179
*690 FILLER_32_2
*691 FILLER_32_23
*692 FILLER_32_243
*693 FILLER_32_247
*694 FILLER_32_250
*695 FILLER_32_31
*696 FILLER_32_314
*697 FILLER_32_318
*698 FILLER_32_321
*699 FILLER_32_37
*700 FILLER_32_385
*701 FILLER_32_389
*702 FILLER_32_392
*703 FILLER_32_408
*704 FILLER_32_416
*705 FILLER_32_7
*706 FILLER_33_137
*707 FILLER_33_141
*708 FILLER_33_144
*709 FILLER_33_2
*710 FILLER_33_208
*711 FILLER_33_212
*712 FILLER_33_215
*713 FILLER_33_279
*714 FILLER_33_283
*715 FILLER_33_286
*716 FILLER_33_350
*717 FILLER_33_354
*718 FILLER_33_357
*719 FILLER_33_389
*720 FILLER_33_405
*721 FILLER_33_413
*722 FILLER_33_419
*723 FILLER_33_66
*724 FILLER_33_70
*725 FILLER_33_73
*726 FILLER_34_101
*727 FILLER_34_105
*728 FILLER_34_108
*729 FILLER_34_172
*730 FILLER_34_176
*731 FILLER_34_179
*732 FILLER_34_2
*733 FILLER_34_23
*734 FILLER_34_243
*735 FILLER_34_247
*736 FILLER_34_250
*737 FILLER_34_31
*738 FILLER_34_314
*739 FILLER_34_318
*740 FILLER_34_321
*741 FILLER_34_37
*742 FILLER_34_385
*743 FILLER_34_389
*744 FILLER_34_392
*745 FILLER_34_408
*746 FILLER_34_416
*747 FILLER_34_7
*748 FILLER_35_137
*749 FILLER_35_141
*750 FILLER_35_144
*751 FILLER_35_2
*752 FILLER_35_208
*753 FILLER_35_212
*754 FILLER_35_215
*755 FILLER_35_279
*756 FILLER_35_283
*757 FILLER_35_286
*758 FILLER_35_350
*759 FILLER_35_354
*760 FILLER_35_357
*761 FILLER_35_389
*762 FILLER_35_405
*763 FILLER_35_413
*764 FILLER_35_417
*765 FILLER_35_419
*766 FILLER_35_66
*767 FILLER_35_70
*768 FILLER_35_73
*769 FILLER_36_101
*770 FILLER_36_105
*771 FILLER_36_108
*772 FILLER_36_172
*773 FILLER_36_176
*774 FILLER_36_179
*775 FILLER_36_2
*776 FILLER_36_243
*777 FILLER_36_247
*778 FILLER_36_250
*779 FILLER_36_314
*780 FILLER_36_318
*781 FILLER_36_321
*782 FILLER_36_34
*783 FILLER_36_37
*784 FILLER_36_385
*785 FILLER_36_389
*786 FILLER_36_392
*787 FILLER_36_408
*788 FILLER_36_412
*789 FILLER_36_414
*790 FILLER_36_419
*791 FILLER_37_137
*792 FILLER_37_141
*793 FILLER_37_144
*794 FILLER_37_2
*795 FILLER_37_208
*796 FILLER_37_212
*797 FILLER_37_215
*798 FILLER_37_279
*799 FILLER_37_283
*800 FILLER_37_286
*801 FILLER_37_350
*802 FILLER_37_354
*803 FILLER_37_357
*804 FILLER_37_389
*805 FILLER_37_405
*806 FILLER_37_413
*807 FILLER_37_419
*808 FILLER_37_66
*809 FILLER_37_70
*810 FILLER_37_73
*811 FILLER_38_101
*812 FILLER_38_105
*813 FILLER_38_108
*814 FILLER_38_172
*815 FILLER_38_176
*816 FILLER_38_179
*817 FILLER_38_2
*818 FILLER_38_23
*819 FILLER_38_243
*820 FILLER_38_247
*821 FILLER_38_250
*822 FILLER_38_31
*823 FILLER_38_314
*824 FILLER_38_318
*825 FILLER_38_321
*826 FILLER_38_37
*827 FILLER_38_385
*828 FILLER_38_389
*829 FILLER_38_392
*830 FILLER_38_408
*831 FILLER_38_416
*832 FILLER_38_7
*833 FILLER_39_137
*834 FILLER_39_141
*835 FILLER_39_144
*836 FILLER_39_2
*837 FILLER_39_208
*838 FILLER_39_212
*839 FILLER_39_215
*840 FILLER_39_279
*841 FILLER_39_283
*842 FILLER_39_286
*843 FILLER_39_350
*844 FILLER_39_354
*845 FILLER_39_357
*846 FILLER_39_389
*847 FILLER_39_405
*848 FILLER_39_413
*849 FILLER_39_417
*850 FILLER_39_419
*851 FILLER_39_66
*852 FILLER_39_70
*853 FILLER_39_73
*854 FILLER_3_137
*855 FILLER_3_141
*856 FILLER_3_144
*857 FILLER_3_2
*858 FILLER_3_208
*859 FILLER_3_212
*860 FILLER_3_215
*861 FILLER_3_279
*862 FILLER_3_283
*863 FILLER_3_286
*864 FILLER_3_350
*865 FILLER_3_354
*866 FILLER_3_357
*867 FILLER_3_389
*868 FILLER_3_405
*869 FILLER_3_413
*870 FILLER_3_417
*871 FILLER_3_419
*872 FILLER_3_66
*873 FILLER_3_70
*874 FILLER_3_73
*875 FILLER_40_101
*876 FILLER_40_105
*877 FILLER_40_108
*878 FILLER_40_172
*879 FILLER_40_176
*880 FILLER_40_179
*881 FILLER_40_2
*882 FILLER_40_243
*883 FILLER_40_247
*884 FILLER_40_250
*885 FILLER_40_314
*886 FILLER_40_318
*887 FILLER_40_321
*888 FILLER_40_34
*889 FILLER_40_37
*890 FILLER_40_385
*891 FILLER_40_389
*892 FILLER_40_392
*893 FILLER_40_408
*894 FILLER_40_412
*895 FILLER_40_414
*896 FILLER_40_419
*897 FILLER_41_137
*898 FILLER_41_141
*899 FILLER_41_144
*900 FILLER_41_2
*901 FILLER_41_208
*902 FILLER_41_212
*903 FILLER_41_215
*904 FILLER_41_279
*905 FILLER_41_283
*906 FILLER_41_286
*907 FILLER_41_350
*908 FILLER_41_354
*909 FILLER_41_357
*910 FILLER_41_389
*911 FILLER_41_405
*912 FILLER_41_413
*913 FILLER_41_417
*914 FILLER_41_419
*915 FILLER_41_7
*916 FILLER_41_73
*917 FILLER_42_101
*918 FILLER_42_105
*919 FILLER_42_108
*920 FILLER_42_172
*921 FILLER_42_176
*922 FILLER_42_179
*923 FILLER_42_2
*924 FILLER_42_243
*925 FILLER_42_247
*926 FILLER_42_250
*927 FILLER_42_314
*928 FILLER_42_318
*929 FILLER_42_321
*930 FILLER_42_34
*931 FILLER_42_37
*932 FILLER_42_385
*933 FILLER_42_389
*934 FILLER_42_392
*935 FILLER_42_408
*936 FILLER_42_412
*937 FILLER_42_414
*938 FILLER_42_419
*939 FILLER_43_137
*940 FILLER_43_141
*941 FILLER_43_144
*942 FILLER_43_2
*943 FILLER_43_208
*944 FILLER_43_212
*945 FILLER_43_215
*946 FILLER_43_279
*947 FILLER_43_283
*948 FILLER_43_286
*949 FILLER_43_350
*950 FILLER_43_354
*951 FILLER_43_357
*952 FILLER_43_389
*953 FILLER_43_405
*954 FILLER_43_413
*955 FILLER_43_417
*956 FILLER_43_419
*957 FILLER_43_7
*958 FILLER_43_73
*959 FILLER_44_101
*960 FILLER_44_105
*961 FILLER_44_108
*962 FILLER_44_172
*963 FILLER_44_176
*964 FILLER_44_179
*965 FILLER_44_2
*966 FILLER_44_243
*967 FILLER_44_247
*968 FILLER_44_250
*969 FILLER_44_314
*970 FILLER_44_318
*971 FILLER_44_321
*972 FILLER_44_34
*973 FILLER_44_37
*974 FILLER_44_385
*975 FILLER_44_389
*976 FILLER_44_392
*977 FILLER_44_408
*978 FILLER_44_412
*979 FILLER_44_414
*980 FILLER_44_419
*981 FILLER_45_137
*982 FILLER_45_141
*983 FILLER_45_144
*984 FILLER_45_2
*985 FILLER_45_208
*986 FILLER_45_212
*987 FILLER_45_215
*988 FILLER_45_279
*989 FILLER_45_283
*990 FILLER_45_286
*991 FILLER_45_350
*992 FILLER_45_354
*993 FILLER_45_357
*994 FILLER_45_389
*995 FILLER_45_405
*996 FILLER_45_413
*997 FILLER_45_417
*998 FILLER_45_419
*999 FILLER_45_7
*1000 FILLER_45_73
*1001 FILLER_46_101
*1002 FILLER_46_105
*1003 FILLER_46_108
*1004 FILLER_46_172
*1005 FILLER_46_176
*1006 FILLER_46_179
*1007 FILLER_46_2
*1008 FILLER_46_243
*1009 FILLER_46_247
*1010 FILLER_46_250
*1011 FILLER_46_314
*1012 FILLER_46_318
*1013 FILLER_46_321
*1014 FILLER_46_34
*1015 FILLER_46_37
*1016 FILLER_46_385
*1017 FILLER_46_389
*1018 FILLER_46_392
*1019 FILLER_46_408
*1020 FILLER_46_416
*1021 FILLER_47_137
*1022 FILLER_47_141
*1023 FILLER_47_144
*1024 FILLER_47_2
*1025 FILLER_47_208
*1026 FILLER_47_212
*1027 FILLER_47_215
*1028 FILLER_47_279
*1029 FILLER_47_283
*1030 FILLER_47_286
*1031 FILLER_47_350
*1032 FILLER_47_354
*1033 FILLER_47_357
*1034 FILLER_47_389
*1035 FILLER_47_405
*1036 FILLER_47_413
*1037 FILLER_47_419
*1038 FILLER_47_66
*1039 FILLER_47_70
*1040 FILLER_47_73
*1041 FILLER_48_101
*1042 FILLER_48_105
*1043 FILLER_48_108
*1044 FILLER_48_172
*1045 FILLER_48_176
*1046 FILLER_48_179
*1047 FILLER_48_2
*1048 FILLER_48_243
*1049 FILLER_48_247
*1050 FILLER_48_250
*1051 FILLER_48_314
*1052 FILLER_48_318
*1053 FILLER_48_321
*1054 FILLER_48_34
*1055 FILLER_48_37
*1056 FILLER_48_385
*1057 FILLER_48_389
*1058 FILLER_48_392
*1059 FILLER_48_408
*1060 FILLER_48_416
*1061 FILLER_49_137
*1062 FILLER_49_141
*1063 FILLER_49_144
*1064 FILLER_49_2
*1065 FILLER_49_208
*1066 FILLER_49_212
*1067 FILLER_49_215
*1068 FILLER_49_279
*1069 FILLER_49_283
*1070 FILLER_49_286
*1071 FILLER_49_350
*1072 FILLER_49_354
*1073 FILLER_49_357
*1074 FILLER_49_389
*1075 FILLER_49_405
*1076 FILLER_49_413
*1077 FILLER_49_417
*1078 FILLER_49_419
*1079 FILLER_49_66
*1080 FILLER_49_70
*1081 FILLER_49_73
*1082 FILLER_4_101
*1083 FILLER_4_105
*1084 FILLER_4_108
*1085 FILLER_4_172
*1086 FILLER_4_176
*1087 FILLER_4_179
*1088 FILLER_4_2
*1089 FILLER_4_243
*1090 FILLER_4_247
*1091 FILLER_4_250
*1092 FILLER_4_314
*1093 FILLER_4_318
*1094 FILLER_4_321
*1095 FILLER_4_34
*1096 FILLER_4_37
*1097 FILLER_4_385
*1098 FILLER_4_389
*1099 FILLER_4_392
*1100 FILLER_4_408
*1101 FILLER_4_412
*1102 FILLER_4_414
*1103 FILLER_4_419
*1104 FILLER_50_101
*1105 FILLER_50_105
*1106 FILLER_50_108
*1107 FILLER_50_172
*1108 FILLER_50_176
*1109 FILLER_50_179
*1110 FILLER_50_2
*1111 FILLER_50_23
*1112 FILLER_50_243
*1113 FILLER_50_247
*1114 FILLER_50_250
*1115 FILLER_50_31
*1116 FILLER_50_314
*1117 FILLER_50_318
*1118 FILLER_50_321
*1119 FILLER_50_37
*1120 FILLER_50_385
*1121 FILLER_50_389
*1122 FILLER_50_392
*1123 FILLER_50_408
*1124 FILLER_50_416
*1125 FILLER_50_7
*1126 FILLER_51_137
*1127 FILLER_51_141
*1128 FILLER_51_144
*1129 FILLER_51_2
*1130 FILLER_51_208
*1131 FILLER_51_212
*1132 FILLER_51_215
*1133 FILLER_51_279
*1134 FILLER_51_283
*1135 FILLER_51_286
*1136 FILLER_51_350
*1137 FILLER_51_354
*1138 FILLER_51_357
*1139 FILLER_51_389
*1140 FILLER_51_405
*1141 FILLER_51_413
*1142 FILLER_51_417
*1143 FILLER_51_419
*1144 FILLER_51_66
*1145 FILLER_51_70
*1146 FILLER_51_73
*1147 FILLER_52_101
*1148 FILLER_52_105
*1149 FILLER_52_108
*1150 FILLER_52_172
*1151 FILLER_52_176
*1152 FILLER_52_179
*1153 FILLER_52_2
*1154 FILLER_52_23
*1155 FILLER_52_243
*1156 FILLER_52_247
*1157 FILLER_52_250
*1158 FILLER_52_31
*1159 FILLER_52_314
*1160 FILLER_52_318
*1161 FILLER_52_321
*1162 FILLER_52_37
*1163 FILLER_52_385
*1164 FILLER_52_389
*1165 FILLER_52_392
*1166 FILLER_52_408
*1167 FILLER_52_416
*1168 FILLER_52_7
*1169 FILLER_53_13
*1170 FILLER_53_137
*1171 FILLER_53_141
*1172 FILLER_53_144
*1173 FILLER_53_2
*1174 FILLER_53_208
*1175 FILLER_53_212
*1176 FILLER_53_215
*1177 FILLER_53_279
*1178 FILLER_53_283
*1179 FILLER_53_286
*1180 FILLER_53_350
*1181 FILLER_53_354
*1182 FILLER_53_357
*1183 FILLER_53_389
*1184 FILLER_53_405
*1185 FILLER_53_413
*1186 FILLER_53_417
*1187 FILLER_53_419
*1188 FILLER_53_45
*1189 FILLER_53_61
*1190 FILLER_53_69
*1191 FILLER_53_7
*1192 FILLER_53_73
*1193 FILLER_54_101
*1194 FILLER_54_107
*1195 FILLER_54_11
*1196 FILLER_54_112
*1197 FILLER_54_128
*1198 FILLER_54_136
*1199 FILLER_54_142
*1200 FILLER_54_150
*1201 FILLER_54_155
*1202 FILLER_54_163
*1203 FILLER_54_167
*1204 FILLER_54_17
*1205 FILLER_54_173
*1206 FILLER_54_177
*1207 FILLER_54_185
*1208 FILLER_54_2
*1209 FILLER_54_201
*1210 FILLER_54_209
*1211 FILLER_54_212
*1212 FILLER_54_228
*1213 FILLER_54_233
*1214 FILLER_54_241
*1215 FILLER_54_247
*1216 FILLER_54_279
*1217 FILLER_54_282
*1218 FILLER_54_287
*1219 FILLER_54_29
*1220 FILLER_54_303
*1221 FILLER_54_311
*1222 FILLER_54_317
*1223 FILLER_54_329
*1224 FILLER_54_33
*1225 FILLER_54_337
*1226 FILLER_54_341
*1227 FILLER_54_347
*1228 FILLER_54_349
*1229 FILLER_54_352
*1230 FILLER_54_368
*1231 FILLER_54_37
*1232 FILLER_54_372
*1233 FILLER_54_377
*1234 FILLER_54_387
*1235 FILLER_54_403
*1236 FILLER_54_411
*1237 FILLER_54_419
*1238 FILLER_54_53
*1239 FILLER_54_59
*1240 FILLER_54_6
*1241 FILLER_54_67
*1242 FILLER_54_69
*1243 FILLER_54_72
*1244 FILLER_54_77
*1245 FILLER_54_93
*1246 FILLER_5_137
*1247 FILLER_5_141
*1248 FILLER_5_144
*1249 FILLER_5_2
*1250 FILLER_5_208
*1251 FILLER_5_212
*1252 FILLER_5_215
*1253 FILLER_5_279
*1254 FILLER_5_283
*1255 FILLER_5_286
*1256 FILLER_5_350
*1257 FILLER_5_354
*1258 FILLER_5_357
*1259 FILLER_5_389
*1260 FILLER_5_405
*1261 FILLER_5_413
*1262 FILLER_5_417
*1263 FILLER_5_419
*1264 FILLER_5_7
*1265 FILLER_5_73
*1266 FILLER_6_101
*1267 FILLER_6_105
*1268 FILLER_6_108
*1269 FILLER_6_172
*1270 FILLER_6_176
*1271 FILLER_6_179
*1272 FILLER_6_2
*1273 FILLER_6_243
*1274 FILLER_6_247
*1275 FILLER_6_250
*1276 FILLER_6_314
*1277 FILLER_6_318
*1278 FILLER_6_321
*1279 FILLER_6_34
*1280 FILLER_6_37
*1281 FILLER_6_385
*1282 FILLER_6_389
*1283 FILLER_6_392
*1284 FILLER_6_408
*1285 FILLER_6_412
*1286 FILLER_6_414
*1287 FILLER_6_419
*1288 FILLER_7_137
*1289 FILLER_7_141
*1290 FILLER_7_144
*1291 FILLER_7_2
*1292 FILLER_7_208
*1293 FILLER_7_212
*1294 FILLER_7_215
*1295 FILLER_7_279
*1296 FILLER_7_283
*1297 FILLER_7_286
*1298 FILLER_7_350
*1299 FILLER_7_354
*1300 FILLER_7_357
*1301 FILLER_7_389
*1302 FILLER_7_405
*1303 FILLER_7_413
*1304 FILLER_7_417
*1305 FILLER_7_419
*1306 FILLER_7_7
*1307 FILLER_7_73
*1308 FILLER_8_101
*1309 FILLER_8_105
*1310 FILLER_8_108
*1311 FILLER_8_172
*1312 FILLER_8_176
*1313 FILLER_8_179
*1314 FILLER_8_2
*1315 FILLER_8_243
*1316 FILLER_8_247
*1317 FILLER_8_250
*1318 FILLER_8_314
*1319 FILLER_8_318
*1320 FILLER_8_321
*1321 FILLER_8_34
*1322 FILLER_8_37
*1323 FILLER_8_385
*1324 FILLER_8_389
*1325 FILLER_8_392
*1326 FILLER_8_408
*1327 FILLER_8_412
*1328 FILLER_8_414
*1329 FILLER_8_419
*1330 FILLER_9_137
*1331 FILLER_9_141
*1332 FILLER_9_144
*1333 FILLER_9_2
*1334 FILLER_9_208
*1335 FILLER_9_212
*1336 FILLER_9_215
*1337 FILLER_9_279
*1338 FILLER_9_283
*1339 FILLER_9_286
*1340 FILLER_9_350
*1341 FILLER_9_354
*1342 FILLER_9_357
*1343 FILLER_9_389
*1344 FILLER_9_405
*1345 FILLER_9_413
*1346 FILLER_9_417
*1347 FILLER_9_419
*1348 FILLER_9_7
*1349 FILLER_9_73
*1350 PHY_0
*1351 PHY_1
*1352 PHY_10
*1353 PHY_100
*1354 PHY_101
*1355 PHY_102
*1356 PHY_103
*1357 PHY_104
*1358 PHY_105
*1359 PHY_106
*1360 PHY_107
*1361 PHY_108
*1362 PHY_109
*1363 PHY_11
*1364 PHY_12
*1365 PHY_13
*1366 PHY_14
*1367 PHY_15
*1368 PHY_16
*1369 PHY_17
*1370 PHY_18
*1371 PHY_19
*1372 PHY_2
*1373 PHY_20
*1374 PHY_21
*1375 PHY_22
*1376 PHY_23
*1377 PHY_24
*1378 PHY_25
*1379 PHY_26
*1380 PHY_27
*1381 PHY_28
*1382 PHY_29
*1383 PHY_3
*1384 PHY_30
*1385 PHY_31
*1386 PHY_32
*1387 PHY_33
*1388 PHY_34
*1389 PHY_35
*1390 PHY_36
*1391 PHY_37
*1392 PHY_38
*1393 PHY_39
*1394 PHY_4
*1395 PHY_40
*1396 PHY_41
*1397 PHY_42
*1398 PHY_43
*1399 PHY_44
*1400 PHY_45
*1401 PHY_46
*1402 PHY_47
*1403 PHY_48
*1404 PHY_49
*1405 PHY_5
*1406 PHY_50
*1407 PHY_51
*1408 PHY_52
*1409 PHY_53
*1410 PHY_54
*1411 PHY_55
*1412 PHY_56
*1413 PHY_57
*1414 PHY_58
*1415 PHY_59
*1416 PHY_6
*1417 PHY_60
*1418 PHY_61
*1419 PHY_62
*1420 PHY_63
*1421 PHY_64
*1422 PHY_65
*1423 PHY_66
*1424 PHY_67
*1425 PHY_68
*1426 PHY_69
*1427 PHY_7
*1428 PHY_70
*1429 PHY_71
*1430 PHY_72
*1431 PHY_73
*1432 PHY_74
*1433 PHY_75
*1434 PHY_76
*1435 PHY_77
*1436 PHY_78
*1437 PHY_79
*1438 PHY_8
*1439 PHY_80
*1440 PHY_81
*1441 PHY_82
*1442 PHY_83
*1443 PHY_84
*1444 PHY_85
*1445 PHY_86
*1446 PHY_87
*1447 PHY_88
*1448 PHY_89
*1449 PHY_9
*1450 PHY_90
*1451 PHY_91
*1452 PHY_92
*1453 PHY_93
*1454 PHY_94
*1455 PHY_95
*1456 PHY_96
*1457 PHY_97
*1458 PHY_98
*1459 PHY_99
*1460 TAP_110
*1461 TAP_111
*1462 TAP_112
*1463 TAP_113
*1464 TAP_114
*1465 TAP_115
*1466 TAP_116
*1467 TAP_117
*1468 TAP_118
*1469 TAP_119
*1470 TAP_120
*1471 TAP_121
*1472 TAP_122
*1473 TAP_123
*1474 TAP_124
*1475 TAP_125
*1476 TAP_126
*1477 TAP_127
*1478 TAP_128
*1479 TAP_129
*1480 TAP_130
*1481 TAP_131
*1482 TAP_132
*1483 TAP_133
*1484 TAP_134
*1485 TAP_135
*1486 TAP_136
*1487 TAP_137
*1488 TAP_138
*1489 TAP_139
*1490 TAP_140
*1491 TAP_141
*1492 TAP_142
*1493 TAP_143
*1494 TAP_144
*1495 TAP_145
*1496 TAP_146
*1497 TAP_147
*1498 TAP_148
*1499 TAP_149
*1500 TAP_150
*1501 TAP_151
*1502 TAP_152
*1503 TAP_153
*1504 TAP_154
*1505 TAP_155
*1506 TAP_156
*1507 TAP_157
*1508 TAP_158
*1509 TAP_159
*1510 TAP_160
*1511 TAP_161
*1512 TAP_162
*1513 TAP_163
*1514 TAP_164
*1515 TAP_165
*1516 TAP_166
*1517 TAP_167
*1518 TAP_168
*1519 TAP_169
*1520 TAP_170
*1521 TAP_171
*1522 TAP_172
*1523 TAP_173
*1524 TAP_174
*1525 TAP_175
*1526 TAP_176
*1527 TAP_177
*1528 TAP_178
*1529 TAP_179
*1530 TAP_180
*1531 TAP_181
*1532 TAP_182
*1533 TAP_183
*1534 TAP_184
*1535 TAP_185
*1536 TAP_186
*1537 TAP_187
*1538 TAP_188
*1539 TAP_189
*1540 TAP_190
*1541 TAP_191
*1542 TAP_192
*1543 TAP_193
*1544 TAP_194
*1545 TAP_195
*1546 TAP_196
*1547 TAP_197
*1548 TAP_198
*1549 TAP_199
*1550 TAP_200
*1551 TAP_201
*1552 TAP_202
*1553 TAP_203
*1554 TAP_204
*1555 TAP_205
*1556 TAP_206
*1557 TAP_207
*1558 TAP_208
*1559 TAP_209
*1560 TAP_210
*1561 TAP_211
*1562 TAP_212
*1563 TAP_213
*1564 TAP_214
*1565 TAP_215
*1566 TAP_216
*1567 TAP_217
*1568 TAP_218
*1569 TAP_219
*1570 TAP_220
*1571 TAP_221
*1572 TAP_222
*1573 TAP_223
*1574 TAP_224
*1575 TAP_225
*1576 TAP_226
*1577 TAP_227
*1578 TAP_228
*1579 TAP_229
*1580 TAP_230
*1581 TAP_231
*1582 TAP_232
*1583 TAP_233
*1584 TAP_234
*1585 TAP_235
*1586 TAP_236
*1587 TAP_237
*1588 TAP_238
*1589 TAP_239
*1590 TAP_240
*1591 TAP_241
*1592 TAP_242
*1593 TAP_243
*1594 TAP_244
*1595 TAP_245
*1596 TAP_246
*1597 TAP_247
*1598 TAP_248
*1599 TAP_249
*1600 TAP_250
*1601 TAP_251
*1602 TAP_252
*1603 TAP_253
*1604 TAP_254
*1605 TAP_255
*1606 TAP_256
*1607 TAP_257
*1608 TAP_258
*1609 TAP_259
*1610 TAP_260
*1611 TAP_261
*1612 TAP_262
*1613 TAP_263
*1614 TAP_264
*1615 TAP_265
*1616 TAP_266
*1617 TAP_267
*1618 TAP_268
*1619 TAP_269
*1620 TAP_270
*1621 TAP_271
*1622 TAP_272
*1623 TAP_273
*1624 TAP_274
*1625 TAP_275
*1626 TAP_276
*1627 TAP_277
*1628 TAP_278
*1629 TAP_279
*1630 TAP_280
*1631 TAP_281
*1632 TAP_282
*1633 TAP_283
*1634 TAP_284
*1635 TAP_285
*1636 TAP_286
*1637 TAP_287
*1638 TAP_288
*1639 TAP_289
*1640 TAP_290
*1641 TAP_291
*1642 TAP_292
*1643 TAP_293
*1644 TAP_294
*1645 TAP_295
*1646 TAP_296
*1647 TAP_297
*1648 TAP_298
*1649 TAP_299
*1650 TAP_300
*1651 TAP_301
*1652 TAP_302
*1653 TAP_303
*1654 TAP_304
*1655 TAP_305
*1656 TAP_306
*1657 TAP_307
*1658 TAP_308
*1659 TAP_309
*1660 TAP_310
*1661 TAP_311
*1662 TAP_312
*1663 TAP_313
*1664 TAP_314
*1665 TAP_315
*1666 TAP_316
*1667 TAP_317
*1668 TAP_318
*1669 TAP_319
*1670 TAP_320
*1671 TAP_321
*1672 TAP_322
*1673 TAP_323
*1674 TAP_324
*1675 TAP_325
*1676 TAP_326
*1677 TAP_327
*1678 TAP_328
*1679 TAP_329
*1680 TAP_330
*1681 TAP_331
*1682 TAP_332
*1683 TAP_333
*1684 TAP_334
*1685 TAP_335
*1686 TAP_336
*1687 TAP_337
*1688 TAP_338
*1689 TAP_339
*1690 TAP_340
*1691 TAP_341
*1692 TAP_342
*1693 TAP_343
*1694 TAP_344
*1695 TAP_345
*1696 TAP_346
*1697 TAP_347
*1698 TAP_348
*1699 TAP_349
*1700 TAP_350
*1701 TAP_351
*1702 TAP_352
*1703 TAP_353
*1704 TAP_354
*1705 TAP_355
*1706 TAP_356
*1707 TAP_357
*1708 TAP_358
*1709 TAP_359
*1710 TAP_360
*1711 TAP_361
*1712 TAP_362
*1713 TAP_363
*1714 TAP_364
*1715 TAP_365
*1716 TAP_366
*1717 TAP_367
*1718 TAP_368
*1719 TAP_369
*1720 TAP_370
*1721 TAP_371
*1722 TAP_372
*1723 TAP_373
*1724 TAP_374
*1725 TAP_375