*SPEF "ieee 1481-1999"
*DESIGN "user_module"
*DATE "11:11:11 Fri 11 11, 1111"
*VENDOR "OpenRCX"
*PROGRAM "Parallel Extraction"
*VERSION "1.0"
*DESIGN_FLOW "NAME_SCOPE LOCAL" "PIN_CAP NONE"
*DIVIDER /
*DELIMITER :
*BUS_DELIMITER []
*T_UNIT 1 NS
*C_UNIT 1 PF
*R_UNIT 1 OHM
*L_UNIT 1 HENRY

*NAME_MAP
*1 io_in[0]
*2 io_in[1]
*3 io_in[2]
*4 io_in[3]
*5 io_in[4]
*6 io_in[5]
*7 io_in[6]
*8 io_in[7]
*9 net4
*10 net5
*11 net6
*12 net7
*13 net8
*14 net1
*15 net2
*16 net3
*17 FILLER_0_109
*18 FILLER_0_113
*19 FILLER_0_125
*20 FILLER_0_137
*21 FILLER_0_141
*22 FILLER_0_15
*23 FILLER_0_153
*24 FILLER_0_165
*25 FILLER_0_169
*26 FILLER_0_181
*27 FILLER_0_193
*28 FILLER_0_197
*29 FILLER_0_209
*30 FILLER_0_221
*31 FILLER_0_225
*32 FILLER_0_237
*33 FILLER_0_249
*34 FILLER_0_253
*35 FILLER_0_258
*36 FILLER_0_27
*37 FILLER_0_270
*38 FILLER_0_278
*39 FILLER_0_281
*40 FILLER_0_29
*41 FILLER_0_293
*42 FILLER_0_3
*43 FILLER_0_305
*44 FILLER_0_309
*45 FILLER_0_321
*46 FILLER_0_333
*47 FILLER_0_337
*48 FILLER_0_349
*49 FILLER_0_361
*50 FILLER_0_365
*51 FILLER_0_377
*52 FILLER_0_389
*53 FILLER_0_393
*54 FILLER_0_405
*55 FILLER_0_41
*56 FILLER_0_417
*57 FILLER_0_421
*58 FILLER_0_433
*59 FILLER_0_445
*60 FILLER_0_449
*61 FILLER_0_461
*62 FILLER_0_473
*63 FILLER_0_477
*64 FILLER_0_489
*65 FILLER_0_501
*66 FILLER_0_505
*67 FILLER_0_513
*68 FILLER_0_53
*69 FILLER_0_57
*70 FILLER_0_69
*71 FILLER_0_81
*72 FILLER_0_85
*73 FILLER_0_97
*74 FILLER_10_109
*75 FILLER_10_121
*76 FILLER_10_133
*77 FILLER_10_139
*78 FILLER_10_141
*79 FILLER_10_15
*80 FILLER_10_153
*81 FILLER_10_165
*82 FILLER_10_177
*83 FILLER_10_189
*84 FILLER_10_195
*85 FILLER_10_197
*86 FILLER_10_209
*87 FILLER_10_221
*88 FILLER_10_233
*89 FILLER_10_245
*90 FILLER_10_251
*91 FILLER_10_253
*92 FILLER_10_265
*93 FILLER_10_27
*94 FILLER_10_277
*95 FILLER_10_289
*96 FILLER_10_29
*97 FILLER_10_3
*98 FILLER_10_301
*99 FILLER_10_307
*100 FILLER_10_309
*101 FILLER_10_321
*102 FILLER_10_333
*103 FILLER_10_345
*104 FILLER_10_357
*105 FILLER_10_363
*106 FILLER_10_365
*107 FILLER_10_377
*108 FILLER_10_389
*109 FILLER_10_401
*110 FILLER_10_41
*111 FILLER_10_413
*112 FILLER_10_419
*113 FILLER_10_421
*114 FILLER_10_433
*115 FILLER_10_445
*116 FILLER_10_457
*117 FILLER_10_469
*118 FILLER_10_475
*119 FILLER_10_477
*120 FILLER_10_489
*121 FILLER_10_501
*122 FILLER_10_513
*123 FILLER_10_53
*124 FILLER_10_65
*125 FILLER_10_77
*126 FILLER_10_83
*127 FILLER_10_85
*128 FILLER_10_97
*129 FILLER_11_105
*130 FILLER_11_111
*131 FILLER_11_113
*132 FILLER_11_125
*133 FILLER_11_137
*134 FILLER_11_149
*135 FILLER_11_15
*136 FILLER_11_161
*137 FILLER_11_167
*138 FILLER_11_169
*139 FILLER_11_181
*140 FILLER_11_193
*141 FILLER_11_205
*142 FILLER_11_217
*143 FILLER_11_223
*144 FILLER_11_225
*145 FILLER_11_237
*146 FILLER_11_249
*147 FILLER_11_261
*148 FILLER_11_27
*149 FILLER_11_273
*150 FILLER_11_279
*151 FILLER_11_281
*152 FILLER_11_293
*153 FILLER_11_3
*154 FILLER_11_305
*155 FILLER_11_317
*156 FILLER_11_329
*157 FILLER_11_335
*158 FILLER_11_337
*159 FILLER_11_349
*160 FILLER_11_361
*161 FILLER_11_373
*162 FILLER_11_385
*163 FILLER_11_39
*164 FILLER_11_391
*165 FILLER_11_393
*166 FILLER_11_405
*167 FILLER_11_417
*168 FILLER_11_429
*169 FILLER_11_441
*170 FILLER_11_447
*171 FILLER_11_449
*172 FILLER_11_461
*173 FILLER_11_473
*174 FILLER_11_485
*175 FILLER_11_497
*176 FILLER_11_503
*177 FILLER_11_505
*178 FILLER_11_51
*179 FILLER_11_513
*180 FILLER_11_55
*181 FILLER_11_57
*182 FILLER_11_69
*183 FILLER_11_81
*184 FILLER_11_93
*185 FILLER_12_109
*186 FILLER_12_121
*187 FILLER_12_133
*188 FILLER_12_139
*189 FILLER_12_141
*190 FILLER_12_15
*191 FILLER_12_153
*192 FILLER_12_165
*193 FILLER_12_177
*194 FILLER_12_189
*195 FILLER_12_195
*196 FILLER_12_197
*197 FILLER_12_209
*198 FILLER_12_221
*199 FILLER_12_233
*200 FILLER_12_245
*201 FILLER_12_251
*202 FILLER_12_253
*203 FILLER_12_265
*204 FILLER_12_27
*205 FILLER_12_277
*206 FILLER_12_289
*207 FILLER_12_29
*208 FILLER_12_3
*209 FILLER_12_301
*210 FILLER_12_307
*211 FILLER_12_309
*212 FILLER_12_321
*213 FILLER_12_333
*214 FILLER_12_345
*215 FILLER_12_357
*216 FILLER_12_363
*217 FILLER_12_365
*218 FILLER_12_377
*219 FILLER_12_389
*220 FILLER_12_401
*221 FILLER_12_41
*222 FILLER_12_413
*223 FILLER_12_419
*224 FILLER_12_421
*225 FILLER_12_433
*226 FILLER_12_445
*227 FILLER_12_457
*228 FILLER_12_469
*229 FILLER_12_475
*230 FILLER_12_477
*231 FILLER_12_489
*232 FILLER_12_501
*233 FILLER_12_513
*234 FILLER_12_53
*235 FILLER_12_65
*236 FILLER_12_77
*237 FILLER_12_83
*238 FILLER_12_85
*239 FILLER_12_97
*240 FILLER_13_105
*241 FILLER_13_111
*242 FILLER_13_113
*243 FILLER_13_125
*244 FILLER_13_137
*245 FILLER_13_149
*246 FILLER_13_15
*247 FILLER_13_161
*248 FILLER_13_167
*249 FILLER_13_169
*250 FILLER_13_181
*251 FILLER_13_193
*252 FILLER_13_205
*253 FILLER_13_217
*254 FILLER_13_223
*255 FILLER_13_225
*256 FILLER_13_237
*257 FILLER_13_249
*258 FILLER_13_261
*259 FILLER_13_27
*260 FILLER_13_273
*261 FILLER_13_279
*262 FILLER_13_281
*263 FILLER_13_293
*264 FILLER_13_3
*265 FILLER_13_305
*266 FILLER_13_317
*267 FILLER_13_329
*268 FILLER_13_335
*269 FILLER_13_337
*270 FILLER_13_349
*271 FILLER_13_361
*272 FILLER_13_373
*273 FILLER_13_385
*274 FILLER_13_39
*275 FILLER_13_391
*276 FILLER_13_393
*277 FILLER_13_405
*278 FILLER_13_417
*279 FILLER_13_429
*280 FILLER_13_441
*281 FILLER_13_447
*282 FILLER_13_449
*283 FILLER_13_461
*284 FILLER_13_473
*285 FILLER_13_485
*286 FILLER_13_497
*287 FILLER_13_503
*288 FILLER_13_505
*289 FILLER_13_51
*290 FILLER_13_513
*291 FILLER_13_55
*292 FILLER_13_57
*293 FILLER_13_69
*294 FILLER_13_81
*295 FILLER_13_93
*296 FILLER_14_109
*297 FILLER_14_121
*298 FILLER_14_133
*299 FILLER_14_139
*300 FILLER_14_141
*301 FILLER_14_15
*302 FILLER_14_153
*303 FILLER_14_165
*304 FILLER_14_177
*305 FILLER_14_189
*306 FILLER_14_195
*307 FILLER_14_197
*308 FILLER_14_209
*309 FILLER_14_221
*310 FILLER_14_233
*311 FILLER_14_245
*312 FILLER_14_251
*313 FILLER_14_253
*314 FILLER_14_265
*315 FILLER_14_27
*316 FILLER_14_277
*317 FILLER_14_289
*318 FILLER_14_29
*319 FILLER_14_3
*320 FILLER_14_301
*321 FILLER_14_307
*322 FILLER_14_309
*323 FILLER_14_321
*324 FILLER_14_333
*325 FILLER_14_345
*326 FILLER_14_357
*327 FILLER_14_363
*328 FILLER_14_365
*329 FILLER_14_377
*330 FILLER_14_389
*331 FILLER_14_401
*332 FILLER_14_41
*333 FILLER_14_413
*334 FILLER_14_419
*335 FILLER_14_421
*336 FILLER_14_433
*337 FILLER_14_445
*338 FILLER_14_457
*339 FILLER_14_469
*340 FILLER_14_475
*341 FILLER_14_477
*342 FILLER_14_489
*343 FILLER_14_501
*344 FILLER_14_513
*345 FILLER_14_53
*346 FILLER_14_65
*347 FILLER_14_77
*348 FILLER_14_83
*349 FILLER_14_85
*350 FILLER_14_97
*351 FILLER_15_105
*352 FILLER_15_111
*353 FILLER_15_113
*354 FILLER_15_125
*355 FILLER_15_137
*356 FILLER_15_149
*357 FILLER_15_15
*358 FILLER_15_161
*359 FILLER_15_167
*360 FILLER_15_169
*361 FILLER_15_181
*362 FILLER_15_193
*363 FILLER_15_205
*364 FILLER_15_217
*365 FILLER_15_223
*366 FILLER_15_225
*367 FILLER_15_237
*368 FILLER_15_249
*369 FILLER_15_261
*370 FILLER_15_27
*371 FILLER_15_273
*372 FILLER_15_279
*373 FILLER_15_281
*374 FILLER_15_293
*375 FILLER_15_3
*376 FILLER_15_305
*377 FILLER_15_317
*378 FILLER_15_329
*379 FILLER_15_335
*380 FILLER_15_337
*381 FILLER_15_349
*382 FILLER_15_361
*383 FILLER_15_373
*384 FILLER_15_385
*385 FILLER_15_39
*386 FILLER_15_391
*387 FILLER_15_393
*388 FILLER_15_405
*389 FILLER_15_417
*390 FILLER_15_429
*391 FILLER_15_441
*392 FILLER_15_447
*393 FILLER_15_449
*394 FILLER_15_461
*395 FILLER_15_473
*396 FILLER_15_485
*397 FILLER_15_497
*398 FILLER_15_503
*399 FILLER_15_505
*400 FILLER_15_51
*401 FILLER_15_513
*402 FILLER_15_55
*403 FILLER_15_57
*404 FILLER_15_69
*405 FILLER_15_81
*406 FILLER_15_93
*407 FILLER_16_109
*408 FILLER_16_121
*409 FILLER_16_133
*410 FILLER_16_139
*411 FILLER_16_141
*412 FILLER_16_15
*413 FILLER_16_153
*414 FILLER_16_165
*415 FILLER_16_177
*416 FILLER_16_189
*417 FILLER_16_195
*418 FILLER_16_197
*419 FILLER_16_209
*420 FILLER_16_221
*421 FILLER_16_233
*422 FILLER_16_245
*423 FILLER_16_251
*424 FILLER_16_253
*425 FILLER_16_265
*426 FILLER_16_27
*427 FILLER_16_277
*428 FILLER_16_289
*429 FILLER_16_29
*430 FILLER_16_3
*431 FILLER_16_301
*432 FILLER_16_307
*433 FILLER_16_309
*434 FILLER_16_321
*435 FILLER_16_333
*436 FILLER_16_345
*437 FILLER_16_357
*438 FILLER_16_363
*439 FILLER_16_365
*440 FILLER_16_377
*441 FILLER_16_389
*442 FILLER_16_401
*443 FILLER_16_41
*444 FILLER_16_413
*445 FILLER_16_419
*446 FILLER_16_421
*447 FILLER_16_433
*448 FILLER_16_445
*449 FILLER_16_457
*450 FILLER_16_469
*451 FILLER_16_475
*452 FILLER_16_477
*453 FILLER_16_489
*454 FILLER_16_501
*455 FILLER_16_513
*456 FILLER_16_53
*457 FILLER_16_65
*458 FILLER_16_77
*459 FILLER_16_83
*460 FILLER_16_85
*461 FILLER_16_97
*462 FILLER_17_105
*463 FILLER_17_111
*464 FILLER_17_113
*465 FILLER_17_125
*466 FILLER_17_137
*467 FILLER_17_149
*468 FILLER_17_15
*469 FILLER_17_161
*470 FILLER_17_167
*471 FILLER_17_169
*472 FILLER_17_181
*473 FILLER_17_193
*474 FILLER_17_205
*475 FILLER_17_217
*476 FILLER_17_223
*477 FILLER_17_225
*478 FILLER_17_237
*479 FILLER_17_249
*480 FILLER_17_261
*481 FILLER_17_27
*482 FILLER_17_273
*483 FILLER_17_279
*484 FILLER_17_281
*485 FILLER_17_293
*486 FILLER_17_3
*487 FILLER_17_305
*488 FILLER_17_317
*489 FILLER_17_329
*490 FILLER_17_335
*491 FILLER_17_337
*492 FILLER_17_349
*493 FILLER_17_361
*494 FILLER_17_373
*495 FILLER_17_385
*496 FILLER_17_39
*497 FILLER_17_391
*498 FILLER_17_393
*499 FILLER_17_405
*500 FILLER_17_417
*501 FILLER_17_429
*502 FILLER_17_441
*503 FILLER_17_447
*504 FILLER_17_449
*505 FILLER_17_461
*506 FILLER_17_473
*507 FILLER_17_485
*508 FILLER_17_497
*509 FILLER_17_503
*510 FILLER_17_505
*511 FILLER_17_51
*512 FILLER_17_512
*513 FILLER_17_55
*514 FILLER_17_57
*515 FILLER_17_69
*516 FILLER_17_81
*517 FILLER_17_93
*518 FILLER_18_109
*519 FILLER_18_121
*520 FILLER_18_133
*521 FILLER_18_139
*522 FILLER_18_141
*523 FILLER_18_15
*524 FILLER_18_153
*525 FILLER_18_165
*526 FILLER_18_177
*527 FILLER_18_189
*528 FILLER_18_195
*529 FILLER_18_197
*530 FILLER_18_209
*531 FILLER_18_221
*532 FILLER_18_233
*533 FILLER_18_245
*534 FILLER_18_251
*535 FILLER_18_253
*536 FILLER_18_265
*537 FILLER_18_27
*538 FILLER_18_277
*539 FILLER_18_289
*540 FILLER_18_29
*541 FILLER_18_3
*542 FILLER_18_301
*543 FILLER_18_307
*544 FILLER_18_309
*545 FILLER_18_321
*546 FILLER_18_333
*547 FILLER_18_345
*548 FILLER_18_357
*549 FILLER_18_363
*550 FILLER_18_365
*551 FILLER_18_377
*552 FILLER_18_389
*553 FILLER_18_401
*554 FILLER_18_41
*555 FILLER_18_413
*556 FILLER_18_419
*557 FILLER_18_421
*558 FILLER_18_433
*559 FILLER_18_445
*560 FILLER_18_457
*561 FILLER_18_469
*562 FILLER_18_475
*563 FILLER_18_477
*564 FILLER_18_489
*565 FILLER_18_501
*566 FILLER_18_513
*567 FILLER_18_53
*568 FILLER_18_65
*569 FILLER_18_77
*570 FILLER_18_83
*571 FILLER_18_85
*572 FILLER_18_97
*573 FILLER_19_105
*574 FILLER_19_111
*575 FILLER_19_113
*576 FILLER_19_125
*577 FILLER_19_137
*578 FILLER_19_149
*579 FILLER_19_161
*580 FILLER_19_167
*581 FILLER_19_169
*582 FILLER_19_18
*583 FILLER_19_181
*584 FILLER_19_193
*585 FILLER_19_205
*586 FILLER_19_217
*587 FILLER_19_223
*588 FILLER_19_225
*589 FILLER_19_237
*590 FILLER_19_249
*591 FILLER_19_261
*592 FILLER_19_273
*593 FILLER_19_279
*594 FILLER_19_281
*595 FILLER_19_293
*596 FILLER_19_30
*597 FILLER_19_305
*598 FILLER_19_317
*599 FILLER_19_329
*600 FILLER_19_335
*601 FILLER_19_337
*602 FILLER_19_349
*603 FILLER_19_361
*604 FILLER_19_373
*605 FILLER_19_385
*606 FILLER_19_391
*607 FILLER_19_393
*608 FILLER_19_405
*609 FILLER_19_417
*610 FILLER_19_42
*611 FILLER_19_429
*612 FILLER_19_441
*613 FILLER_19_447
*614 FILLER_19_449
*615 FILLER_19_461
*616 FILLER_19_473
*617 FILLER_19_485
*618 FILLER_19_497
*619 FILLER_19_503
*620 FILLER_19_505
*621 FILLER_19_513
*622 FILLER_19_54
*623 FILLER_19_57
*624 FILLER_19_6
*625 FILLER_19_69
*626 FILLER_19_81
*627 FILLER_19_93
*628 FILLER_1_105
*629 FILLER_1_111
*630 FILLER_1_113
*631 FILLER_1_125
*632 FILLER_1_137
*633 FILLER_1_149
*634 FILLER_1_15
*635 FILLER_1_161
*636 FILLER_1_167
*637 FILLER_1_169
*638 FILLER_1_181
*639 FILLER_1_193
*640 FILLER_1_205
*641 FILLER_1_217
*642 FILLER_1_223
*643 FILLER_1_225
*644 FILLER_1_237
*645 FILLER_1_249
*646 FILLER_1_261
*647 FILLER_1_27
*648 FILLER_1_273
*649 FILLER_1_279
*650 FILLER_1_281
*651 FILLER_1_293
*652 FILLER_1_3
*653 FILLER_1_305
*654 FILLER_1_317
*655 FILLER_1_329
*656 FILLER_1_335
*657 FILLER_1_337
*658 FILLER_1_349
*659 FILLER_1_361
*660 FILLER_1_373
*661 FILLER_1_385
*662 FILLER_1_39
*663 FILLER_1_391
*664 FILLER_1_393
*665 FILLER_1_405
*666 FILLER_1_417
*667 FILLER_1_429
*668 FILLER_1_441
*669 FILLER_1_447
*670 FILLER_1_449
*671 FILLER_1_461
*672 FILLER_1_473
*673 FILLER_1_485
*674 FILLER_1_497
*675 FILLER_1_503
*676 FILLER_1_505
*677 FILLER_1_51
*678 FILLER_1_513
*679 FILLER_1_55
*680 FILLER_1_57
*681 FILLER_1_69
*682 FILLER_1_81
*683 FILLER_1_93
*684 FILLER_20_109
*685 FILLER_20_121
*686 FILLER_20_133
*687 FILLER_20_139
*688 FILLER_20_141
*689 FILLER_20_15
*690 FILLER_20_153
*691 FILLER_20_165
*692 FILLER_20_177
*693 FILLER_20_189
*694 FILLER_20_195
*695 FILLER_20_197
*696 FILLER_20_209
*697 FILLER_20_221
*698 FILLER_20_233
*699 FILLER_20_245
*700 FILLER_20_251
*701 FILLER_20_253
*702 FILLER_20_265
*703 FILLER_20_27
*704 FILLER_20_277
*705 FILLER_20_289
*706 FILLER_20_29
*707 FILLER_20_3
*708 FILLER_20_301
*709 FILLER_20_307
*710 FILLER_20_309
*711 FILLER_20_321
*712 FILLER_20_333
*713 FILLER_20_345
*714 FILLER_20_357
*715 FILLER_20_363
*716 FILLER_20_365
*717 FILLER_20_377
*718 FILLER_20_389
*719 FILLER_20_401
*720 FILLER_20_41
*721 FILLER_20_413
*722 FILLER_20_419
*723 FILLER_20_421
*724 FILLER_20_433
*725 FILLER_20_445
*726 FILLER_20_457
*727 FILLER_20_469
*728 FILLER_20_475
*729 FILLER_20_477
*730 FILLER_20_489
*731 FILLER_20_501
*732 FILLER_20_513
*733 FILLER_20_53
*734 FILLER_20_65
*735 FILLER_20_77
*736 FILLER_20_83
*737 FILLER_20_85
*738 FILLER_20_97
*739 FILLER_21_105
*740 FILLER_21_111
*741 FILLER_21_113
*742 FILLER_21_125
*743 FILLER_21_137
*744 FILLER_21_149
*745 FILLER_21_15
*746 FILLER_21_161
*747 FILLER_21_167
*748 FILLER_21_169
*749 FILLER_21_181
*750 FILLER_21_193
*751 FILLER_21_205
*752 FILLER_21_217
*753 FILLER_21_223
*754 FILLER_21_225
*755 FILLER_21_237
*756 FILLER_21_249
*757 FILLER_21_261
*758 FILLER_21_27
*759 FILLER_21_273
*760 FILLER_21_279
*761 FILLER_21_281
*762 FILLER_21_293
*763 FILLER_21_3
*764 FILLER_21_305
*765 FILLER_21_317
*766 FILLER_21_329
*767 FILLER_21_335
*768 FILLER_21_337
*769 FILLER_21_349
*770 FILLER_21_361
*771 FILLER_21_373
*772 FILLER_21_385
*773 FILLER_21_39
*774 FILLER_21_391
*775 FILLER_21_393
*776 FILLER_21_405
*777 FILLER_21_417
*778 FILLER_21_429
*779 FILLER_21_441
*780 FILLER_21_447
*781 FILLER_21_449
*782 FILLER_21_461
*783 FILLER_21_473
*784 FILLER_21_485
*785 FILLER_21_497
*786 FILLER_21_503
*787 FILLER_21_505
*788 FILLER_21_51
*789 FILLER_21_513
*790 FILLER_21_55
*791 FILLER_21_57
*792 FILLER_21_69
*793 FILLER_21_81
*794 FILLER_21_93
*795 FILLER_22_109
*796 FILLER_22_121
*797 FILLER_22_133
*798 FILLER_22_139
*799 FILLER_22_141
*800 FILLER_22_15
*801 FILLER_22_153
*802 FILLER_22_165
*803 FILLER_22_177
*804 FILLER_22_189
*805 FILLER_22_195
*806 FILLER_22_197
*807 FILLER_22_209
*808 FILLER_22_221
*809 FILLER_22_233
*810 FILLER_22_245
*811 FILLER_22_251
*812 FILLER_22_253
*813 FILLER_22_265
*814 FILLER_22_27
*815 FILLER_22_277
*816 FILLER_22_289
*817 FILLER_22_29
*818 FILLER_22_3
*819 FILLER_22_301
*820 FILLER_22_307
*821 FILLER_22_309
*822 FILLER_22_321
*823 FILLER_22_333
*824 FILLER_22_345
*825 FILLER_22_357
*826 FILLER_22_363
*827 FILLER_22_365
*828 FILLER_22_377
*829 FILLER_22_389
*830 FILLER_22_401
*831 FILLER_22_41
*832 FILLER_22_413
*833 FILLER_22_419
*834 FILLER_22_421
*835 FILLER_22_433
*836 FILLER_22_445
*837 FILLER_22_457
*838 FILLER_22_469
*839 FILLER_22_475
*840 FILLER_22_477
*841 FILLER_22_489
*842 FILLER_22_501
*843 FILLER_22_513
*844 FILLER_22_53
*845 FILLER_22_65
*846 FILLER_22_77
*847 FILLER_22_83
*848 FILLER_22_85
*849 FILLER_22_97
*850 FILLER_23_105
*851 FILLER_23_111
*852 FILLER_23_113
*853 FILLER_23_125
*854 FILLER_23_137
*855 FILLER_23_149
*856 FILLER_23_15
*857 FILLER_23_161
*858 FILLER_23_167
*859 FILLER_23_169
*860 FILLER_23_181
*861 FILLER_23_193
*862 FILLER_23_205
*863 FILLER_23_217
*864 FILLER_23_223
*865 FILLER_23_225
*866 FILLER_23_237
*867 FILLER_23_249
*868 FILLER_23_261
*869 FILLER_23_27
*870 FILLER_23_273
*871 FILLER_23_279
*872 FILLER_23_281
*873 FILLER_23_293
*874 FILLER_23_3
*875 FILLER_23_305
*876 FILLER_23_317
*877 FILLER_23_329
*878 FILLER_23_335
*879 FILLER_23_337
*880 FILLER_23_349
*881 FILLER_23_361
*882 FILLER_23_373
*883 FILLER_23_385
*884 FILLER_23_39
*885 FILLER_23_391
*886 FILLER_23_393
*887 FILLER_23_405
*888 FILLER_23_417
*889 FILLER_23_429
*890 FILLER_23_441
*891 FILLER_23_447
*892 FILLER_23_449
*893 FILLER_23_461
*894 FILLER_23_473
*895 FILLER_23_485
*896 FILLER_23_497
*897 FILLER_23_503
*898 FILLER_23_505
*899 FILLER_23_51
*900 FILLER_23_513
*901 FILLER_23_55
*902 FILLER_23_57
*903 FILLER_23_69
*904 FILLER_23_81
*905 FILLER_23_93
*906 FILLER_24_109
*907 FILLER_24_121
*908 FILLER_24_133
*909 FILLER_24_139
*910 FILLER_24_141
*911 FILLER_24_15
*912 FILLER_24_153
*913 FILLER_24_165
*914 FILLER_24_177
*915 FILLER_24_189
*916 FILLER_24_195
*917 FILLER_24_197
*918 FILLER_24_209
*919 FILLER_24_221
*920 FILLER_24_233
*921 FILLER_24_245
*922 FILLER_24_251
*923 FILLER_24_253
*924 FILLER_24_265
*925 FILLER_24_27
*926 FILLER_24_277
*927 FILLER_24_289
*928 FILLER_24_29
*929 FILLER_24_3
*930 FILLER_24_301
*931 FILLER_24_307
*932 FILLER_24_309
*933 FILLER_24_321
*934 FILLER_24_333
*935 FILLER_24_345
*936 FILLER_24_357
*937 FILLER_24_363
*938 FILLER_24_365
*939 FILLER_24_377
*940 FILLER_24_389
*941 FILLER_24_401
*942 FILLER_24_41
*943 FILLER_24_413
*944 FILLER_24_419
*945 FILLER_24_421
*946 FILLER_24_433
*947 FILLER_24_445
*948 FILLER_24_457
*949 FILLER_24_469
*950 FILLER_24_475
*951 FILLER_24_477
*952 FILLER_24_489
*953 FILLER_24_501
*954 FILLER_24_513
*955 FILLER_24_53
*956 FILLER_24_65
*957 FILLER_24_77
*958 FILLER_24_83
*959 FILLER_24_85
*960 FILLER_24_97
*961 FILLER_25_105
*962 FILLER_25_111
*963 FILLER_25_113
*964 FILLER_25_125
*965 FILLER_25_137
*966 FILLER_25_149
*967 FILLER_25_15
*968 FILLER_25_161
*969 FILLER_25_167
*970 FILLER_25_169
*971 FILLER_25_181
*972 FILLER_25_193
*973 FILLER_25_205
*974 FILLER_25_217
*975 FILLER_25_223
*976 FILLER_25_225
*977 FILLER_25_237
*978 FILLER_25_249
*979 FILLER_25_261
*980 FILLER_25_27
*981 FILLER_25_273
*982 FILLER_25_279
*983 FILLER_25_281
*984 FILLER_25_293
*985 FILLER_25_3
*986 FILLER_25_305
*987 FILLER_25_317
*988 FILLER_25_329
*989 FILLER_25_335
*990 FILLER_25_337
*991 FILLER_25_349
*992 FILLER_25_361
*993 FILLER_25_373
*994 FILLER_25_385
*995 FILLER_25_39
*996 FILLER_25_391
*997 FILLER_25_393
*998 FILLER_25_405
*999 FILLER_25_417
*1000 FILLER_25_429
*1001 FILLER_25_441
*1002 FILLER_25_447
*1003 FILLER_25_449
*1004 FILLER_25_461
*1005 FILLER_25_473
*1006 FILLER_25_485
*1007 FILLER_25_497
*1008 FILLER_25_503
*1009 FILLER_25_505
*1010 FILLER_25_51
*1011 FILLER_25_513
*1012 FILLER_25_55
*1013 FILLER_25_57
*1014 FILLER_25_69
*1015 FILLER_25_81
*1016 FILLER_25_93
*1017 FILLER_26_109
*1018 FILLER_26_121
*1019 FILLER_26_133
*1020 FILLER_26_139
*1021 FILLER_26_141
*1022 FILLER_26_15
*1023 FILLER_26_153
*1024 FILLER_26_165
*1025 FILLER_26_177
*1026 FILLER_26_189
*1027 FILLER_26_195
*1028 FILLER_26_197
*1029 FILLER_26_209
*1030 FILLER_26_221
*1031 FILLER_26_233
*1032 FILLER_26_245
*1033 FILLER_26_251
*1034 FILLER_26_253
*1035 FILLER_26_265
*1036 FILLER_26_27
*1037 FILLER_26_277
*1038 FILLER_26_289
*1039 FILLER_26_29
*1040 FILLER_26_3
*1041 FILLER_26_301
*1042 FILLER_26_307
*1043 FILLER_26_309
*1044 FILLER_26_321
*1045 FILLER_26_333
*1046 FILLER_26_345
*1047 FILLER_26_357
*1048 FILLER_26_363
*1049 FILLER_26_365
*1050 FILLER_26_377
*1051 FILLER_26_389
*1052 FILLER_26_401
*1053 FILLER_26_41
*1054 FILLER_26_413
*1055 FILLER_26_419
*1056 FILLER_26_421
*1057 FILLER_26_433
*1058 FILLER_26_445
*1059 FILLER_26_457
*1060 FILLER_26_469
*1061 FILLER_26_475
*1062 FILLER_26_477
*1063 FILLER_26_489
*1064 FILLER_26_501
*1065 FILLER_26_513
*1066 FILLER_26_53
*1067 FILLER_26_65
*1068 FILLER_26_77
*1069 FILLER_26_83
*1070 FILLER_26_85
*1071 FILLER_26_97
*1072 FILLER_27_105
*1073 FILLER_27_111
*1074 FILLER_27_113
*1075 FILLER_27_125
*1076 FILLER_27_137
*1077 FILLER_27_149
*1078 FILLER_27_15
*1079 FILLER_27_161
*1080 FILLER_27_167
*1081 FILLER_27_169
*1082 FILLER_27_181
*1083 FILLER_27_193
*1084 FILLER_27_205
*1085 FILLER_27_217
*1086 FILLER_27_223
*1087 FILLER_27_225
*1088 FILLER_27_237
*1089 FILLER_27_249
*1090 FILLER_27_261
*1091 FILLER_27_27
*1092 FILLER_27_273
*1093 FILLER_27_279
*1094 FILLER_27_281
*1095 FILLER_27_293
*1096 FILLER_27_3
*1097 FILLER_27_305
*1098 FILLER_27_317
*1099 FILLER_27_329
*1100 FILLER_27_335
*1101 FILLER_27_337
*1102 FILLER_27_349
*1103 FILLER_27_361
*1104 FILLER_27_373
*1105 FILLER_27_385
*1106 FILLER_27_39
*1107 FILLER_27_391
*1108 FILLER_27_393
*1109 FILLER_27_405
*1110 FILLER_27_417
*1111 FILLER_27_429
*1112 FILLER_27_441
*1113 FILLER_27_447
*1114 FILLER_27_449
*1115 FILLER_27_461
*1116 FILLER_27_473
*1117 FILLER_27_485
*1118 FILLER_27_497
*1119 FILLER_27_503
*1120 FILLER_27_505
*1121 FILLER_27_51
*1122 FILLER_27_513
*1123 FILLER_27_55
*1124 FILLER_27_57
*1125 FILLER_27_69
*1126 FILLER_27_81
*1127 FILLER_27_93
*1128 FILLER_28_109
*1129 FILLER_28_121
*1130 FILLER_28_133
*1131 FILLER_28_139
*1132 FILLER_28_141
*1133 FILLER_28_15
*1134 FILLER_28_153
*1135 FILLER_28_165
*1136 FILLER_28_177
*1137 FILLER_28_189
*1138 FILLER_28_195
*1139 FILLER_28_197
*1140 FILLER_28_209
*1141 FILLER_28_221
*1142 FILLER_28_233
*1143 FILLER_28_245
*1144 FILLER_28_251
*1145 FILLER_28_253
*1146 FILLER_28_265
*1147 FILLER_28_27
*1148 FILLER_28_277
*1149 FILLER_28_289
*1150 FILLER_28_29
*1151 FILLER_28_3
*1152 FILLER_28_301
*1153 FILLER_28_307
*1154 FILLER_28_309
*1155 FILLER_28_321
*1156 FILLER_28_333
*1157 FILLER_28_345
*1158 FILLER_28_357
*1159 FILLER_28_363
*1160 FILLER_28_365
*1161 FILLER_28_377
*1162 FILLER_28_389
*1163 FILLER_28_401
*1164 FILLER_28_41
*1165 FILLER_28_413
*1166 FILLER_28_419
*1167 FILLER_28_421
*1168 FILLER_28_433
*1169 FILLER_28_445
*1170 FILLER_28_457
*1171 FILLER_28_469
*1172 FILLER_28_475
*1173 FILLER_28_477
*1174 FILLER_28_489
*1175 FILLER_28_501
*1176 FILLER_28_513
*1177 FILLER_28_53
*1178 FILLER_28_65
*1179 FILLER_28_77
*1180 FILLER_28_83
*1181 FILLER_28_85
*1182 FILLER_28_97
*1183 FILLER_29_105
*1184 FILLER_29_111
*1185 FILLER_29_113
*1186 FILLER_29_125
*1187 FILLER_29_137
*1188 FILLER_29_149
*1189 FILLER_29_15
*1190 FILLER_29_161
*1191 FILLER_29_167
*1192 FILLER_29_169
*1193 FILLER_29_181
*1194 FILLER_29_193
*1195 FILLER_29_205
*1196 FILLER_29_217
*1197 FILLER_29_223
*1198 FILLER_29_225
*1199 FILLER_29_237
*1200 FILLER_29_249
*1201 FILLER_29_261
*1202 FILLER_29_27
*1203 FILLER_29_273
*1204 FILLER_29_279
*1205 FILLER_29_281
*1206 FILLER_29_293
*1207 FILLER_29_3
*1208 FILLER_29_305
*1209 FILLER_29_317
*1210 FILLER_29_329
*1211 FILLER_29_335
*1212 FILLER_29_337
*1213 FILLER_29_349
*1214 FILLER_29_361
*1215 FILLER_29_373
*1216 FILLER_29_385
*1217 FILLER_29_39
*1218 FILLER_29_391
*1219 FILLER_29_393
*1220 FILLER_29_405
*1221 FILLER_29_417
*1222 FILLER_29_429
*1223 FILLER_29_441
*1224 FILLER_29_447
*1225 FILLER_29_449
*1226 FILLER_29_461
*1227 FILLER_29_473
*1228 FILLER_29_485
*1229 FILLER_29_497
*1230 FILLER_29_503
*1231 FILLER_29_505
*1232 FILLER_29_51
*1233 FILLER_29_513
*1234 FILLER_29_55
*1235 FILLER_29_57
*1236 FILLER_29_69
*1237 FILLER_29_81
*1238 FILLER_29_93
*1239 FILLER_2_109
*1240 FILLER_2_121
*1241 FILLER_2_133
*1242 FILLER_2_139
*1243 FILLER_2_141
*1244 FILLER_2_15
*1245 FILLER_2_153
*1246 FILLER_2_165
*1247 FILLER_2_177
*1248 FILLER_2_189
*1249 FILLER_2_195
*1250 FILLER_2_197
*1251 FILLER_2_209
*1252 FILLER_2_221
*1253 FILLER_2_233
*1254 FILLER_2_245
*1255 FILLER_2_251
*1256 FILLER_2_253
*1257 FILLER_2_265
*1258 FILLER_2_27
*1259 FILLER_2_277
*1260 FILLER_2_289
*1261 FILLER_2_29
*1262 FILLER_2_3
*1263 FILLER_2_301
*1264 FILLER_2_307
*1265 FILLER_2_309
*1266 FILLER_2_321
*1267 FILLER_2_333
*1268 FILLER_2_345
*1269 FILLER_2_357
*1270 FILLER_2_363
*1271 FILLER_2_365
*1272 FILLER_2_377
*1273 FILLER_2_389
*1274 FILLER_2_401
*1275 FILLER_2_41
*1276 FILLER_2_413
*1277 FILLER_2_419
*1278 FILLER_2_421
*1279 FILLER_2_433
*1280 FILLER_2_445
*1281 FILLER_2_457
*1282 FILLER_2_469
*1283 FILLER_2_475
*1284 FILLER_2_477
*1285 FILLER_2_489
*1286 FILLER_2_501
*1287 FILLER_2_513
*1288 FILLER_2_53
*1289 FILLER_2_65
*1290 FILLER_2_77
*1291 FILLER_2_83
*1292 FILLER_2_85
*1293 FILLER_2_97
*1294 FILLER_30_109
*1295 FILLER_30_121
*1296 FILLER_30_133
*1297 FILLER_30_139
*1298 FILLER_30_141
*1299 FILLER_30_15
*1300 FILLER_30_153
*1301 FILLER_30_165
*1302 FILLER_30_177
*1303 FILLER_30_189
*1304 FILLER_30_195
*1305 FILLER_30_197
*1306 FILLER_30_209
*1307 FILLER_30_221
*1308 FILLER_30_233
*1309 FILLER_30_245
*1310 FILLER_30_251
*1311 FILLER_30_253
*1312 FILLER_30_265
*1313 FILLER_30_27
*1314 FILLER_30_277
*1315 FILLER_30_289
*1316 FILLER_30_29
*1317 FILLER_30_3
*1318 FILLER_30_301
*1319 FILLER_30_307
*1320 FILLER_30_309
*1321 FILLER_30_321
*1322 FILLER_30_333
*1323 FILLER_30_345
*1324 FILLER_30_357
*1325 FILLER_30_363
*1326 FILLER_30_365
*1327 FILLER_30_377
*1328 FILLER_30_389
*1329 FILLER_30_401
*1330 FILLER_30_41
*1331 FILLER_30_413
*1332 FILLER_30_419
*1333 FILLER_30_421
*1334 FILLER_30_433
*1335 FILLER_30_445
*1336 FILLER_30_457
*1337 FILLER_30_469
*1338 FILLER_30_475
*1339 FILLER_30_477
*1340 FILLER_30_489
*1341 FILLER_30_501
*1342 FILLER_30_513
*1343 FILLER_30_53
*1344 FILLER_30_65
*1345 FILLER_30_77
*1346 FILLER_30_83
*1347 FILLER_30_85
*1348 FILLER_30_97
*1349 FILLER_31_105
*1350 FILLER_31_111
*1351 FILLER_31_113
*1352 FILLER_31_125
*1353 FILLER_31_137
*1354 FILLER_31_149
*1355 FILLER_31_15
*1356 FILLER_31_161
*1357 FILLER_31_167
*1358 FILLER_31_169
*1359 FILLER_31_181
*1360 FILLER_31_193
*1361 FILLER_31_205
*1362 FILLER_31_217
*1363 FILLER_31_223
*1364 FILLER_31_225
*1365 FILLER_31_237
*1366 FILLER_31_249
*1367 FILLER_31_261
*1368 FILLER_31_27
*1369 FILLER_31_273
*1370 FILLER_31_279
*1371 FILLER_31_281
*1372 FILLER_31_293
*1373 FILLER_31_3
*1374 FILLER_31_305
*1375 FILLER_31_317
*1376 FILLER_31_329
*1377 FILLER_31_335
*1378 FILLER_31_337
*1379 FILLER_31_349
*1380 FILLER_31_361
*1381 FILLER_31_373
*1382 FILLER_31_385
*1383 FILLER_31_39
*1384 FILLER_31_391
*1385 FILLER_31_393
*1386 FILLER_31_405
*1387 FILLER_31_417
*1388 FILLER_31_429
*1389 FILLER_31_441
*1390 FILLER_31_447
*1391 FILLER_31_449
*1392 FILLER_31_461
*1393 FILLER_31_473
*1394 FILLER_31_485
*1395 FILLER_31_497
*1396 FILLER_31_503
*1397 FILLER_31_505
*1398 FILLER_31_51
*1399 FILLER_31_513
*1400 FILLER_31_55
*1401 FILLER_31_57
*1402 FILLER_31_69
*1403 FILLER_31_81
*1404 FILLER_31_93
*1405 FILLER_32_109
*1406 FILLER_32_121
*1407 FILLER_32_133
*1408 FILLER_32_139
*1409 FILLER_32_141
*1410 FILLER_32_15
*1411 FILLER_32_153
*1412 FILLER_32_165
*1413 FILLER_32_177
*1414 FILLER_32_189
*1415 FILLER_32_195
*1416 FILLER_32_197
*1417 FILLER_32_209
*1418 FILLER_32_221
*1419 FILLER_32_233
*1420 FILLER_32_245
*1421 FILLER_32_251
*1422 FILLER_32_253
*1423 FILLER_32_265
*1424 FILLER_32_27
*1425 FILLER_32_277
*1426 FILLER_32_289
*1427 FILLER_32_29
*1428 FILLER_32_3
*1429 FILLER_32_301
*1430 FILLER_32_307
*1431 FILLER_32_309
*1432 FILLER_32_321
*1433 FILLER_32_333
*1434 FILLER_32_345
*1435 FILLER_32_357
*1436 FILLER_32_363
*1437 FILLER_32_365
*1438 FILLER_32_377
*1439 FILLER_32_389
*1440 FILLER_32_401
*1441 FILLER_32_41
*1442 FILLER_32_413
*1443 FILLER_32_419
*1444 FILLER_32_421
*1445 FILLER_32_433
*1446 FILLER_32_445
*1447 FILLER_32_457
*1448 FILLER_32_469
*1449 FILLER_32_475
*1450 FILLER_32_477
*1451 FILLER_32_489
*1452 FILLER_32_501
*1453 FILLER_32_513
*1454 FILLER_32_53
*1455 FILLER_32_65
*1456 FILLER_32_77
*1457 FILLER_32_83
*1458 FILLER_32_85
*1459 FILLER_32_97
*1460 FILLER_33_105
*1461 FILLER_33_111
*1462 FILLER_33_113
*1463 FILLER_33_125
*1464 FILLER_33_137
*1465 FILLER_33_149
*1466 FILLER_33_15
*1467 FILLER_33_161
*1468 FILLER_33_167
*1469 FILLER_33_169
*1470 FILLER_33_181
*1471 FILLER_33_193
*1472 FILLER_33_205
*1473 FILLER_33_217
*1474 FILLER_33_223
*1475 FILLER_33_225
*1476 FILLER_33_237
*1477 FILLER_33_249
*1478 FILLER_33_261
*1479 FILLER_33_27
*1480 FILLER_33_273
*1481 FILLER_33_279
*1482 FILLER_33_281
*1483 FILLER_33_293
*1484 FILLER_33_3
*1485 FILLER_33_305
*1486 FILLER_33_317
*1487 FILLER_33_329
*1488 FILLER_33_335
*1489 FILLER_33_337
*1490 FILLER_33_349
*1491 FILLER_33_361
*1492 FILLER_33_373
*1493 FILLER_33_385
*1494 FILLER_33_39
*1495 FILLER_33_391
*1496 FILLER_33_393
*1497 FILLER_33_405
*1498 FILLER_33_417
*1499 FILLER_33_429
*1500 FILLER_33_441
*1501 FILLER_33_447
*1502 FILLER_33_449
*1503 FILLER_33_461
*1504 FILLER_33_473
*1505 FILLER_33_485
*1506 FILLER_33_497
*1507 FILLER_33_503
*1508 FILLER_33_505
*1509 FILLER_33_51
*1510 FILLER_33_513
*1511 FILLER_33_55
*1512 FILLER_33_57
*1513 FILLER_33_69
*1514 FILLER_33_81
*1515 FILLER_33_93
*1516 FILLER_34_109
*1517 FILLER_34_121
*1518 FILLER_34_133
*1519 FILLER_34_139
*1520 FILLER_34_141
*1521 FILLER_34_15
*1522 FILLER_34_153
*1523 FILLER_34_165
*1524 FILLER_34_177
*1525 FILLER_34_189
*1526 FILLER_34_195
*1527 FILLER_34_197
*1528 FILLER_34_209
*1529 FILLER_34_221
*1530 FILLER_34_233
*1531 FILLER_34_245
*1532 FILLER_34_251
*1533 FILLER_34_253
*1534 FILLER_34_265
*1535 FILLER_34_27
*1536 FILLER_34_277
*1537 FILLER_34_289
*1538 FILLER_34_29
*1539 FILLER_34_3
*1540 FILLER_34_301
*1541 FILLER_34_307
*1542 FILLER_34_309
*1543 FILLER_34_321
*1544 FILLER_34_333
*1545 FILLER_34_345
*1546 FILLER_34_357
*1547 FILLER_34_363
*1548 FILLER_34_365
*1549 FILLER_34_377
*1550 FILLER_34_389
*1551 FILLER_34_401
*1552 FILLER_34_41
*1553 FILLER_34_413
*1554 FILLER_34_419
*1555 FILLER_34_421
*1556 FILLER_34_433
*1557 FILLER_34_445
*1558 FILLER_34_457
*1559 FILLER_34_469
*1560 FILLER_34_475
*1561 FILLER_34_477
*1562 FILLER_34_489
*1563 FILLER_34_501
*1564 FILLER_34_513
*1565 FILLER_34_53
*1566 FILLER_34_65
*1567 FILLER_34_77
*1568 FILLER_34_83
*1569 FILLER_34_85
*1570 FILLER_34_97