*SPEF "ieee 1481-1999"
*DESIGN "user_project_wrapper"
*DATE "11:11:11 Fri 11 11, 1111"
*VENDOR "OpenRCX"
*PROGRAM "Parallel Extraction"
*VERSION "1.0"
*DESIGN_FLOW "NAME_SCOPE LOCAL" "PIN_CAP NONE"
*DIVIDER /
*DELIMITER :
*BUS_DELIMITER []
*T_UNIT 1 NS
*C_UNIT 1 PF
*R_UNIT 1 OHM
*L_UNIT 1 HENRY

*NAME_MAP
*1 io_in[0]
*2 io_in[10]
*3 io_in[11]
*4 io_in[12]
*5 io_in[13]
*6 io_in[14]
*7 io_in[15]
*8 io_in[16]
*9 io_in[17]
*10 io_in[18]
*11 io_in[19]
*12 io_in[1]
*13 io_in[20]
*14 io_in[21]
*15 io_in[22]
*16 io_in[23]
*17 io_in[24]
*18 io_in[25]
*19 io_in[26]
*20 io_in[27]
*21 io_in[28]
*22 io_in[29]
*23 io_in[2]
*24 io_in[30]
*25 io_in[31]
*26 io_in[32]
*27 io_in[33]
*28 io_in[34]
*29 io_in[35]
*30 io_in[36]
*31 io_in[37]
*32 io_in[3]
*33 io_in[4]
*34 io_in[5]
*35 io_in[6]
*36 io_in[7]
*37 io_in[8]
*38 io_in[9]
*39 io_oeb[0]
*40 io_oeb[10]
*41 io_oeb[11]
*42 io_oeb[12]
*43 io_oeb[13]
*44 io_oeb[14]
*45 io_oeb[15]
*46 io_oeb[16]
*47 io_oeb[17]
*48 io_oeb[18]
*49 io_oeb[19]
*50 io_oeb[1]
*51 io_oeb[20]
*52 io_oeb[21]
*53 io_oeb[22]
*54 io_oeb[23]
*55 io_oeb[24]
*56 io_oeb[25]
*57 io_oeb[26]
*58 io_oeb[27]
*59 io_oeb[28]
*60 io_oeb[29]
*61 io_oeb[2]
*62 io_oeb[30]
*63 io_oeb[31]
*64 io_oeb[32]
*65 io_oeb[33]
*66 io_oeb[34]
*67 io_oeb[35]
*68 io_oeb[36]
*69 io_oeb[37]
*70 io_oeb[3]
*71 io_oeb[4]
*72 io_oeb[5]
*73 io_oeb[6]
*74 io_oeb[7]
*75 io_oeb[8]
*76 io_oeb[9]
*77 io_out[0]
*78 io_out[10]
*79 io_out[11]
*80 io_out[12]
*81 io_out[13]
*82 io_out[14]
*83 io_out[15]
*84 io_out[16]
*85 io_out[17]
*86 io_out[18]
*87 io_out[19]
*88 io_out[1]
*89 io_out[20]
*90 io_out[21]
*91 io_out[22]
*92 io_out[23]
*93 io_out[24]
*94 io_out[25]
*95 io_out[26]
*96 io_out[27]
*97 io_out[28]
*98 io_out[29]
*99 io_out[2]
*100 io_out[30]
*101 io_out[31]
*102 io_out[32]
*103 io_out[33]
*104 io_out[34]
*105 io_out[35]
*106 io_out[36]
*107 io_out[37]
*108 io_out[3]
*109 io_out[4]
*110 io_out[5]
*111 io_out[6]
*112 io_out[7]
*113 io_out[8]
*114 io_out[9]
*115 la_data_in[0]
*116 la_data_in[10]
*117 la_data_in[11]
*118 la_data_in[12]
*119 la_data_in[13]
*120 la_data_in[14]
*121 la_data_in[15]
*122 la_data_in[16]
*123 la_data_in[17]
*124 la_data_in[18]
*125 la_data_in[19]
*126 la_data_in[1]
*127 la_data_in[20]
*128 la_data_in[21]
*129 la_data_in[22]
*130 la_data_in[23]
*131 la_data_in[24]
*132 la_data_in[25]
*133 la_data_in[26]
*134 la_data_in[27]
*135 la_data_in[28]
*136 la_data_in[29]
*137 la_data_in[2]
*138 la_data_in[30]
*139 la_data_in[31]
*140 la_data_in[32]
*141 la_data_in[33]
*142 la_data_in[34]
*143 la_data_in[35]
*144 la_data_in[36]
*145 la_data_in[37]
*146 la_data_in[38]
*147 la_data_in[39]
*148 la_data_in[3]
*149 la_data_in[40]
*150 la_data_in[41]
*151 la_data_in[42]
*152 la_data_in[43]
*153 la_data_in[44]
*154 la_data_in[45]
*155 la_data_in[46]
*156 la_data_in[47]
*157 la_data_in[48]
*158 la_data_in[49]
*159 la_data_in[4]
*160 la_data_in[50]
*161 la_data_in[51]
*162 la_data_in[52]
*163 la_data_in[53]
*164 la_data_in[54]
*165 la_data_in[55]
*166 la_data_in[56]
*167 la_data_in[57]
*168 la_data_in[58]
*169 la_data_in[59]
*170 la_data_in[5]
*171 la_data_in[60]
*172 la_data_in[61]
*173 la_data_in[62]
*174 la_data_in[63]
*175 la_data_in[6]
*176 la_data_in[7]
*177 la_data_in[8]
*178 la_data_in[9]
*179 la_data_out[0]
*180 la_data_out[10]
*181 la_data_out[11]
*182 la_data_out[12]
*183 la_data_out[13]
*184 la_data_out[14]
*185 la_data_out[15]
*186 la_data_out[16]
*187 la_data_out[17]
*188 la_data_out[18]
*189 la_data_out[19]
*190 la_data_out[1]
*191 la_data_out[20]
*192 la_data_out[21]
*193 la_data_out[22]
*194 la_data_out[23]
*195 la_data_out[24]
*196 la_data_out[25]
*197 la_data_out[26]
*198 la_data_out[27]
*199 la_data_out[28]
*200 la_data_out[29]
*201 la_data_out[2]
*202 la_data_out[30]
*203 la_data_out[31]
*204 la_data_out[32]
*205 la_data_out[33]
*206 la_data_out[34]
*207 la_data_out[35]
*208 la_data_out[36]
*209 la_data_out[37]
*210 la_data_out[38]
*211 la_data_out[39]
*212 la_data_out[3]
*213 la_data_out[40]
*214 la_data_out[41]
*215 la_data_out[42]
*216 la_data_out[43]
*217 la_data_out[44]
*218 la_data_out[45]
*219 la_data_out[46]
*220 la_data_out[47]
*221 la_data_out[48]
*222 la_data_out[49]
*223 la_data_out[4]
*224 la_data_out[50]
*225 la_data_out[51]
*226 la_data_out[52]
*227 la_data_out[53]
*228 la_data_out[54]
*229 la_data_out[55]
*230 la_data_out[56]
*231 la_data_out[57]
*232 la_data_out[58]
*233 la_data_out[59]
*234 la_data_out[5]
*235 la_data_out[60]
*236 la_data_out[61]
*237 la_data_out[62]
*238 la_data_out[63]
*239 la_data_out[6]
*240 la_data_out[7]
*241 la_data_out[8]
*242 la_data_out[9]
*243 la_oenb[0]
*244 la_oenb[10]
*245 la_oenb[11]
*246 la_oenb[12]
*247 la_oenb[13]
*248 la_oenb[14]
*249 la_oenb[15]
*250 la_oenb[16]
*251 la_oenb[17]
*252 la_oenb[18]
*253 la_oenb[19]
*254 la_oenb[1]
*255 la_oenb[20]
*256 la_oenb[21]
*257 la_oenb[22]
*258 la_oenb[23]
*259 la_oenb[24]
*260 la_oenb[25]
*261 la_oenb[26]
*262 la_oenb[27]
*263 la_oenb[28]
*264 la_oenb[29]
*265 la_oenb[2]
*266 la_oenb[30]
*267 la_oenb[31]
*268 la_oenb[32]
*269 la_oenb[33]
*270 la_oenb[34]
*271 la_oenb[35]
*272 la_oenb[36]
*273 la_oenb[37]
*274 la_oenb[38]
*275 la_oenb[39]
*276 la_oenb[3]
*277 la_oenb[40]
*278 la_oenb[41]
*279 la_oenb[42]
*280 la_oenb[43]
*281 la_oenb[44]
*282 la_oenb[45]
*283 la_oenb[46]
*284 la_oenb[47]
*285 la_oenb[48]
*286 la_oenb[49]
*287 la_oenb[4]
*288 la_oenb[50]
*289 la_oenb[51]
*290 la_oenb[52]
*291 la_oenb[53]
*292 la_oenb[54]
*293 la_oenb[55]
*294 la_oenb[56]
*295 la_oenb[57]
*296 la_oenb[58]
*297 la_oenb[59]
*298 la_oenb[5]
*299 la_oenb[60]
*300 la_oenb[61]
*301 la_oenb[62]
*302 la_oenb[63]
*303 la_oenb[6]
*304 la_oenb[7]
*305 la_oenb[8]
*306 la_oenb[9]
*307 user_clock2
*308 user_irq[0]
*309 user_irq[1]
*310 user_irq[2]
*313 wb_clk_i
*314 wb_rst_i
*315 wbs_ack_o
*316 wbs_adr_i[0]
*317 wbs_adr_i[10]
*318 wbs_adr_i[11]
*319 wbs_adr_i[12]
*320 wbs_adr_i[13]
*321 wbs_adr_i[14]
*322 wbs_adr_i[15]
*323 wbs_adr_i[16]
*324 wbs_adr_i[17]
*325 wbs_adr_i[18]
*326 wbs_adr_i[19]
*327 wbs_adr_i[1]
*328 wbs_adr_i[20]
*329 wbs_adr_i[21]
*330 wbs_adr_i[22]
*331 wbs_adr_i[23]
*332 wbs_adr_i[24]
*333 wbs_adr_i[25]
*334 wbs_adr_i[26]
*335 wbs_adr_i[27]
*336 wbs_adr_i[28]
*337 wbs_adr_i[29]
*338 wbs_adr_i[2]
*339 wbs_adr_i[30]
*340 wbs_adr_i[31]
*341 wbs_adr_i[3]
*342 wbs_adr_i[4]
*343 wbs_adr_i[5]
*344 wbs_adr_i[6]
*345 wbs_adr_i[7]
*346 wbs_adr_i[8]
*347 wbs_adr_i[9]
*348 wbs_cyc_i
*349 wbs_dat_i[0]
*350 wbs_dat_i[10]
*351 wbs_dat_i[11]
*352 wbs_dat_i[12]
*353 wbs_dat_i[13]
*354 wbs_dat_i[14]
*355 wbs_dat_i[15]
*356 wbs_dat_i[16]
*357 wbs_dat_i[17]
*358 wbs_dat_i[18]
*359 wbs_dat_i[19]
*360 wbs_dat_i[1]
*361 wbs_dat_i[20]
*362 wbs_dat_i[21]
*363 wbs_dat_i[22]
*364 wbs_dat_i[23]
*365 wbs_dat_i[24]
*366 wbs_dat_i[25]
*367 wbs_dat_i[26]
*368 wbs_dat_i[27]
*369 wbs_dat_i[28]
*370 wbs_dat_i[29]
*371 wbs_dat_i[2]
*372 wbs_dat_i[30]
*373 wbs_dat_i[31]
*374 wbs_dat_i[3]
*375 wbs_dat_i[4]
*376 wbs_dat_i[5]
*377 wbs_dat_i[6]
*378 wbs_dat_i[7]
*379 wbs_dat_i[8]
*380 wbs_dat_i[9]
*381 wbs_dat_o[0]
*382 wbs_dat_o[10]
*383 wbs_dat_o[11]
*384 wbs_dat_o[12]
*385 wbs_dat_o[13]
*386 wbs_dat_o[14]
*387 wbs_dat_o[15]
*388 wbs_dat_o[16]
*389 wbs_dat_o[17]
*390 wbs_dat_o[18]
*391 wbs_dat_o[19]
*392 wbs_dat_o[1]
*393 wbs_dat_o[20]
*394 wbs_dat_o[21]
*395 wbs_dat_o[22]
*396 wbs_dat_o[23]
*397 wbs_dat_o[24]
*398 wbs_dat_o[25]
*399 wbs_dat_o[26]
*400 wbs_dat_o[27]
*401 wbs_dat_o[28]
*402 wbs_dat_o[29]
*403 wbs_dat_o[2]
*404 wbs_dat_o[30]
*405 wbs_dat_o[31]
*406 wbs_dat_o[3]
*407 wbs_dat_o[4]
*408 wbs_dat_o[5]
*409 wbs_dat_o[6]
*410 wbs_dat_o[7]
*411 wbs_dat_o[8]
*412 wbs_dat_o[9]
*413 wbs_sel_i[0]
*414 wbs_sel_i[1]
*415 wbs_sel_i[2]
*416 wbs_sel_i[3]
*417 wbs_stb_i
*418 wbs_we_i
*419 mprj

*PORTS
io_in[0] I
io_in[10] I
io_in[11] I
io_in[12] I
io_in[13] I
io_in[14] I
io_in[15] I
io_in[16] I
io_in[17] I
io_in[18] I
io_in[19] I
io_in[1] I
io_in[20] I
io_in[21] I
io_in[22] I
io_in[23] I
io_in[24] I
io_in[25] I
io_in[26] I
io_in[27] I
io_in[28] I
io_in[29] I
io_in[2] I
io_in[30] I
io_in[31] I
io_in[32] I
io_in[33] I
io_in[34] I
io_in[35] I
io_in[36] I
io_in[37] I
io_in[3] I
io_in[4] I
io_in[5] I
io_in[6] I
io_in[7] I
io_in[8] I
io_in[9] I
io_oeb[0] O
io_oeb[10] O
io_oeb[11] O
io_oeb[12] O
io_oeb[13] O
io_oeb[14] O
io_oeb[15] O
io_oeb[16] O
io_oeb[17] O
io_oeb[18] O
io_oeb[19] O
io_oeb[1] O
io_oeb[20] O
io_oeb[21] O
io_oeb[22] O
io_oeb[23] O
io_oeb[24] O
io_oeb[25] O
io_oeb[26] O
io_oeb[27] O
io_oeb[28] O
io_oeb[29] O
io_oeb[2] O
io_oeb[30] O
io_oeb[31] O
io_oeb[32] O
io_oeb[33] O
io_oeb[34] O
io_oeb[35] O
io_oeb[36] O
io_oeb[37] O
io_oeb[3] O
io_oeb[4] O
io_oeb[5] O
io_oeb[6] O
io_oeb[7] O
io_oeb[8] O
io_oeb[9] O
io_out[0] O
io_out[10] O
io_out[11] O
io_out[12] O
io_out[13] O
io_out[14] O
io_out[15] O
io_out[16] O
io_out[17] O
io_out[18] O
io_out[19] O
io_out[1] O
io_out[20] O
io_out[21] O
io_out[22] O
io_out[23] O
io_out[24] O
io_out[25] O
io_out[26] O
io_out[27] O
io_out[28] O
io_out[29] O
io_out[2] O
io_out[30] O
io_out[31] O
io_out[32] O
io_out[33] O
io_out[34] O
io_out[35] O
io_out[36] O
io_out[37] O
io_out[3] O
io_out[4] O
io_out[5] O
io_out[6] O
io_out[7] O
io_out[8] O
io_out[9] O
la_data_in[0] I
la_data_in[10] I
la_data_in[11] I
la_data_in[12] I
la_data_in[13] I
la_data_in[14] I
la_data_in[15] I
la_data_in[16] I
la_data_in[17] I
la_data_in[18] I
la_data_in[19] I
la_data_in[1] I
la_data_in[20] I
la_data_in[21] I
la_data_in[22] I
la_data_in[23] I
la_data_in[24] I
la_data_in[25] I
la_data_in[26] I
la_data_in[27] I
la_data_in[28] I
la_data_in[29] I
la_data_in[2] I
la_data_in[30] I
la_data_in[31] I
la_data_in[32] I
la_data_in[33] I
la_data_in[34] I
la_data_in[35] I
la_data_in[36] I
la_data_in[37] I
la_data_in[38] I
la_data_in[39] I
la_data_in[3] I
la_data_in[40] I
la_data_in[41] I
la_data_in[42] I
la_data_in[43] I
la_data_in[44] I
la_data_in[45] I
la_data_in[46] I
la_data_in[47] I
la_data_in[48] I
la_data_in[49] I
la_data_in[4] I
la_data_in[50] I
la_data_in[51] I
la_data_in[52] I
la_data_in[53] I
la_data_in[54] I
la_data_in[55] I
la_data_in[56] I
la_data_in[57] I
la_data_in[58] I
la_data_in[59] I
la_data_in[5] I
la_data_in[60] I
la_data_in[61] I
la_data_in[62] I
la_data_in[63] I
la_data_in[6] I
la_data_in[7] I
la_data_in[8] I
la_data_in[9] I
la_data_out[0] O
la_data_out[10] O
la_data_out[11] O
la_data_out[12] O
la_data_out[13] O
la_data_out[14] O
la_data_out[15] O
la_data_out[16] O
la_data_out[17] O
la_data_out[18] O
la_data_out[19] O
la_data_out[1] O
la_data_out[20] O
la_data_out[21] O
la_data_out[22] O
la_data_out[23] O
la_data_out[24] O
la_data_out[25] O
la_data_out[26] O
la_data_out[27] O
la_data_out[28] O
la_data_out[29] O
la_data_out[2] O
la_data_out[30] O
la_data_out[31] O
la_data_out[32] O
la_data_out[33] O
la_data_out[34] O
la_data_out[35] O
la_data_out[36] O
la_data_out[37] O
la_data_out[38] O
la_data_out[39] O
la_data_out[3] O
la_data_out[40] O
la_data_out[41] O
la_data_out[42] O
la_data_out[43] O
la_data_out[44] O
la_data_out[45] O
la_data_out[46] O
la_data_out[47] O
la_data_out[48] O
la_data_out[49] O
la_data_out[4] O
la_data_out[50] O
la_data_out[51] O
la_data_out[52] O
la_data_out[53] O
la_data_out[54] O
la_data_out[55] O
la_data_out[56] O
la_data_out[57] O
la_data_out[58] O
la_data_out[59] O
la_data_out[5] O
la_data_out[60] O
la_data_out[61] O
la_data_out[62] O
la_data_out[63] O
la_data_out[6] O
la_data_out[7] O
la_data_out[8] O
la_data_out[9] O
la_oenb[0] I
la_oenb[10] I
la_oenb[11] I
la_oenb[12] I
la_oenb[13] I
la_oenb[14] I
la_oenb[15] I
la_oenb[16] I
la_oenb[17] I
la_oenb[18] I
la_oenb[19] I
la_oenb[1] I
la_oenb[20] I
la_oenb[21] I
la_oenb[22] I
la_oenb[23] I
la_oenb[24] I
la_oenb[25] I
la_oenb[26] I
la_oenb[27] I
la_oenb[28] I
la_oenb[29] I
la_oenb[2] I
la_oenb[30] I
la_oenb[31] I
la_oenb[32] I
la_oenb[33] I
la_oenb[34] I
la_oenb[35] I
la_oenb[36] I
la_oenb[37] I
la_oenb[38] I
la_oenb[39] I
la_oenb[3] I
la_oenb[40] I
la_oenb[41] I
la_oenb[42] I
la_oenb[43] I
la_oenb[44] I
la_oenb[45] I
la_oenb[46] I
la_oenb[47] I
la_oenb[48] I
la_oenb[49] I
la_oenb[4] I
la_oenb[50] I
la_oenb[51] I
la_oenb[52] I
la_oenb[53] I
la_oenb[54] I
la_oenb[55] I
la_oenb[56] I
la_oenb[57] I
la_oenb[58] I
la_oenb[59] I
la_oenb[5] I
la_oenb[60] I
la_oenb[61] I
la_oenb[62] I
la_oenb[63] I
la_oenb[6] I
la_oenb[7] I
la_oenb[8] I
la_oenb[9] I
user_clock2 I
user_irq[0] O
user_irq[1] O
user_irq[2] O
wb_clk_i I
wb_rst_i I
wbs_ack_o O
wbs_adr_i[0] I
wbs_adr_i[10] I
wbs_adr_i[11] I
wbs_adr_i[12] I
wbs_adr_i[13] I
wbs_adr_i[14] I
wbs_adr_i[15] I
wbs_adr_i[16] I
wbs_adr_i[17] I
wbs_adr_i[18] I
wbs_adr_i[19] I
wbs_adr_i[1] I
wbs_adr_i[20] I
wbs_adr_i[21] I
wbs_adr_i[22] I
wbs_adr_i[23] I
wbs_adr_i[24] I
wbs_adr_i[25] I
wbs_adr_i[26] I
wbs_adr_i[27] I
wbs_adr_i[28] I
wbs_adr_i[29] I
wbs_adr_i[2] I
wbs_adr_i[30] I
wbs_adr_i[31] I
wbs_adr_i[3] I
wbs_adr_i[4] I
wbs_adr_i[5] I
wbs_adr_i[6] I
wbs_adr_i[7] I
wbs_adr_i[8] I
wbs_adr_i[9] I
wbs_cyc_i I
wbs_dat_i[0] I
wbs_dat_i[10] I
wbs_dat_i[11] I
wbs_dat_i[12] I
wbs_dat_i[13] I
wbs_dat_i[14] I
wbs_dat_i[15] I
wbs_dat_i[16] I
wbs_dat_i[17] I
wbs_dat_i[18] I
wbs_dat_i[19] I
wbs_dat_i[1] I
wbs_dat_i[20] I
wbs_dat_i[21] I
wbs_dat_i[22] I
wbs_dat_i[23] I
wbs_dat_i[24] I
wbs_dat_i[25] I
wbs_dat_i[26] I
wbs_dat_i[27] I
wbs_dat_i[28] I
wbs_dat_i[29] I
wbs_dat_i[2] I
wbs_dat_i[30] I
wbs_dat_i[31] I
wbs_dat_i[3] I
wbs_dat_i[4] I
wbs_dat_i[5] I
wbs_dat_i[6] I
wbs_dat_i[7] I
wbs_dat_i[8] I
wbs_dat_i[9] I
wbs_dat_o[0] O
wbs_dat_o[10] O
wbs_dat_o[11] O
wbs_dat_o[12] O
wbs_dat_o[13] O
wbs_dat_o[14] O
wbs_dat_o[15] O
wbs_dat_o[16] O
wbs_dat_o[17] O
wbs_dat_o[18] O
wbs_dat_o[19] O
wbs_dat_o[1] O
wbs_dat_o[20] O
wbs_dat_o[21] O
wbs_dat_o[22] O
wbs_dat_o[23] O
wbs_dat_o[24] O
wbs_dat_o[25] O
wbs_dat_o[26] O
wbs_dat_o[27] O
wbs_dat_o[28] O
wbs_dat_o[29] O
wbs_dat_o[2] O
wbs_dat_o[30] O
wbs_dat_o[31] O
wbs_dat_o[3] O
wbs_dat_o[4] O
wbs_dat_o[5] O
wbs_dat_o[6] O
wbs_dat_o[7] O
wbs_dat_o[8] O
wbs_dat_o[9] O
wbs_sel_i[0] I
wbs_sel_i[1] I
wbs_sel_i[2] I
wbs_sel_i[3] I
wbs_stb_i I
wbs_we_i I

*D_NET *1 0.366727
*CONN
*P io_in[0] I
*I *419:io_in[0] I *D tiny_user_project
*CAP
1 io_in[0] 0.00100991
2 *419:io_in[0] 0.000959581
3 *1:14 0.00690965
4 *1:13 0.00595007
5 *1:11 0.0758437
6 *1:10 0.0758437
7 *1:8 0.0347741
8 *1:7 0.035784
9 *1:14 *43:13 0.01549
10 *1:14 *125:19 0.0135201
11 *1:14 *181:13 0.038978
12 *1:14 *241:15 0.000733794
13 *1:14 *285:19 0.0609307
*RES
1 io_in[0] *1:7 12.825 
2 *1:7 *1:8 267.75 
3 *1:8 *1:10 4.5 
4 *1:10 *1:11 568.89 
5 *1:11 *1:13 4.5 
6 *1:13 *1:14 236.07 
7 *1:14 *419:io_in[0] 19.8 
*END

*D_NET *2 0.275227
*CONN
*P io_in[10] I
*I *419:io_in[10] I *D tiny_user_project
*CAP
1 io_in[10] 0.00450127
2 *419:io_in[10] 0.000765238
3 *2:14 0.00442036
4 *2:13 0.00365513
5 *2:11 0.060593
6 *2:10 0.0650942
7 *419:io_in[10] *182:12 0.00035828
8 *419:io_in[10] *220:12 3.62056e-05
9 *2:11 *11:16 0.00695627
10 *2:11 *48:13 0.065745
11 *2:14 *43:13 0.0403587
12 *2:14 *73:13 0.0214005
13 *2:14 *227:15 8.81727e-05
14 *2:14 *285:19 0.000919844
15 *2:14 *358:21 0.000334417
*RES
1 io_in[10] *2:10 43.695 
2 *2:10 *2:11 568.71 
3 *2:11 *2:13 4.5 
4 *2:13 *2:14 104.67 
5 *2:14 *419:io_in[10] 19.62 
*END

*D_NET *3 0.335082
*CONN
*P io_in[11] I
*I *419:io_in[11] I *D tiny_user_project
*CAP
1 io_in[11] 0.000363112
2 *419:io_in[11] 0.00170004
3 *3:16 0.0182723
4 *3:15 0.0165722
5 *3:13 0.0920964
6 *3:11 0.0924595
7 *419:io_in[11] *419:io_in[14] 6.97444e-05
8 *419:io_in[11] *103:10 0
9 *3:16 *82:13 0.0720132
10 *3:16 *135:11 0.00114468
11 *3:16 *220:13 0.0290752
12 *3:16 *299:15 0.0113153
*RES
1 io_in[11] *3:11 3.195 
2 *3:11 *3:13 582.57 
3 *3:13 *3:15 4.5 
4 *3:15 *3:16 265.95 
5 *3:16 *419:io_in[11] 25.38 
*END

*D_NET *4 0.252518
*CONN
*P io_in[12] I
*I *419:io_in[12] I *D tiny_user_project
*CAP
1 io_in[12] 0.000167227
2 *419:io_in[12] 0.00130849
3 *4:16 0.0315759
4 *4:15 0.0302674
5 *4:13 0.0741955
6 *4:11 0.0743628
7 *4:16 *75:13 0.0406402
*RES
1 io_in[12] *4:11 2.115 
2 *4:11 *4:13 579.51 
3 *4:13 *4:15 4.5 
4 *4:15 *4:16 277.83 
5 *4:16 *419:io_in[12] 22.14 
*END

*D_NET *5 0.328496
*CONN
*P io_in[13] I
*I *419:io_in[13] I *D tiny_user_project
*CAP
1 io_in[13] 0.0751797
2 *419:io_in[13] 0.00199674
3 *5:8 0.0349743
4 *5:7 0.0329776
5 *5:5 0.0751797
6 *419:io_in[13] *419:la_data_in[32] 0.00150399
7 *5:8 *122:19 0.0536702
8 *5:8 *223:12 0.0530135
9 *5:8 *412:18 0
*RES
1 io_in[13] *5:5 587.745 
2 *5:5 *5:7 4.5 
3 *5:7 *5:8 383.49 
4 *5:8 *419:io_in[13] 31.14 
*END

*D_NET *6 0.289552
*CONN
*P io_in[14] I
*I *419:io_in[14] I *D tiny_user_project
*CAP
1 io_in[14] 0.000264341
2 *419:io_in[14] 0.00290704
3 *6:16 0.057447
4 *6:15 0.05454
5 *6:13 0.0754419
6 *6:11 0.0757062
7 *419:io_in[14] *419:la_data_in[42] 0.000110129
8 *419:io_in[14] *103:9 0.00015811
9 *6:13 *89:15 0
10 *6:16 *143:19 0.0164161
11 *6:16 *275:19 0.0064912
12 *419:io_in[11] *419:io_in[14] 6.97444e-05
*RES
1 io_in[14] *6:11 2.655 
2 *6:11 *6:13 590.31 
3 *6:13 *6:15 4.5 
4 *6:15 *6:16 459.09 
5 *6:16 *419:io_in[14] 35.37 
*END

*D_NET *7 0.216192
*CONN
*P io_in[15] I
*I *419:io_in[15] I *D tiny_user_project
*CAP
1 io_in[15] 0.0414305
2 *419:io_in[15] 0.00102364
3 *7:11 0.00721355
4 *7:8 0.0642175
5 *7:7 0.0580276
6 *7:5 0.0414305
7 *419:io_in[15] *112:41 0.0020622
8 *419:io_in[15] *207:20 0.000183386
9 *419:io_in[15] *225:16 4.21968e-05
10 *419:io_in[15] *379:16 8.56716e-05
11 *419:io_in[15] *387:11 0.000474918
*RES
1 io_in[15] *7:5 318.825 
2 *7:5 *7:7 4.5 
3 *7:7 *7:8 452.43 
4 *7:8 *7:11 46.53 
5 *7:11 *419:io_in[15] 29.34 
*END

*D_NET *8 0.219496
*CONN
*P io_in[16] I
*I *419:io_in[16] I *D tiny_user_project
*CAP
1 io_in[16] 0.00344013
2 *419:io_in[16] 0.00039824
3 *8:22 0.00847217
4 *8:21 0.00807393
5 *8:19 0.066846
6 *8:18 0.066846
7 *8:16 0.0309895
8 *8:15 0.0344297
9 *8:19 *264:11 0
10 *8:19 *267:17 0
*RES
1 io_in[16] *8:15 31.725 
2 *8:15 *8:16 195.93 
3 *8:16 *8:18 4.5 
4 *8:18 *8:19 506.25 
5 *8:19 *8:21 4.5 
6 *8:21 *8:22 55.44 
7 *8:22 *419:io_in[16] 3.015 
*END

*D_NET *9 0.143128
*CONN
*P io_in[17] I
*I *419:io_in[17] I *D tiny_user_project
*CAP
1 io_in[17] 0.00132906
2 *419:io_in[17] 0.000403855
3 *9:14 0.0188651
4 *9:13 0.0184613
5 *9:11 0.0487453
6 *9:10 0.0500743
7 *419:io_in[17] *419:la_data_in[10] 2.23347e-05
8 *9:10 *83:19 0.000378268
9 *9:14 *419:la_data_in[10] 0.0048481
10 *9:14 *384:14 0
*RES
1 io_in[17] *9:10 19.935 
2 *9:10 *9:11 370.71 
3 *9:11 *9:13 4.5 
4 *9:13 *9:14 146.07 
5 *9:14 *419:io_in[17] 11.385 
*END

*D_NET *10 0.127415
*CONN
*P io_in[18] I
*I *419:io_in[18] I *D tiny_user_project
*CAP
1 io_in[18] 0.00295752
2 *419:io_in[18] 8.33608e-05
3 *10:17 0.0337734
4 *10:16 0.0336901
5 *10:14 0.0118251
6 *10:13 0.0118251
7 *10:11 0.0137559
8 *10:10 0.0167134
9 *10:10 io_out[18] 0.00279118
10 *10:11 *94:16 0
*RES
1 io_in[18] *10:10 34.515 
2 *10:10 *10:11 105.39 
3 *10:11 *10:13 4.5 
4 *10:13 *10:14 92.43 
5 *10:14 *10:16 4.5 
6 *10:16 *10:17 252.27 
7 *10:17 *419:io_in[18] 9.63 
*END

*D_NET *11 0.26708
*CONN
*P io_in[19] I
*I *419:io_in[19] I *D tiny_user_project
*CAP
1 io_in[19] 0.000178873
2 *419:io_in[19] 0.00131757
3 *11:19 0.014355
4 *11:18 0.0130374
5 *11:16 0.00502978
6 *11:15 0.00502978
7 *11:13 0.0435685
8 *11:11 0.0437473
9 *11:16 *48:13 0.0140947
10 *11:19 *117:11 0.0369074
11 *11:19 *131:19 0.082857
12 *2:11 *11:16 0.00695627
*RES
1 io_in[19] *11:11 2.115 
2 *11:11 *11:13 334.71 
3 *11:13 *11:15 4.5 
4 *11:15 *11:16 73.17 
5 *11:16 *11:18 4.5 
6 *11:18 *11:19 241.11 
7 *11:19 *419:io_in[19] 12.915 
*END

*D_NET *12 0.49844
*CONN
*P io_in[1] I
*I *419:io_in[1] I *D tiny_user_project
*CAP
1 io_in[1] 0.000370905
2 *419:io_in[1] 0.00119995
3 *12:19 0.0132756
4 *12:18 0.0120757
5 *12:16 0.0684813
6 *12:15 0.0684813
7 *12:13 0.00984108
8 *12:11 0.010212
9 *419:io_in[1] *419:wbs_adr_i[24] 3.4576e-05
10 *419:io_in[1] *112:22 0.00133065
11 *419:io_in[1] *112:29 0.00171832
12 *419:io_in[1] *348:12 0.00509068
13 *12:19 *50:11 0.180447
14 *12:19 *77:11 0
15 *12:19 *112:29 0.00363539
16 *12:19 *112:41 0.00547816
17 *12:19 *164:16 0.1109
18 *12:19 *348:12 0.00313045
19 *12:19 *387:11 0.00273682
*RES
1 io_in[1] *12:11 3.195 
2 *12:11 *12:13 75.87 
3 *12:13 *12:15 4.5 
4 *12:15 *12:16 524.07 
5 *12:16 *12:18 4.5 
6 *12:18 *12:19 471.24 
7 *12:19 *419:io_in[1] 32.85 
*END

*D_NET *13 0.130349
*CONN
*P io_in[20] I
*I *419:io_in[20] I *D tiny_user_project
*CAP
1 io_in[20] 0.00143555
2 *419:io_in[20] 8.33608e-05
3 *13:11 0.047139
4 *13:10 0.0470556
5 *13:8 0.0165999
6 *13:7 0.0180354
*RES
1 io_in[20] *13:7 15.525 
2 *13:7 *13:8 128.97 
3 *13:8 *13:10 4.5 
4 *13:10 *13:11 354.87 
5 *13:11 *419:io_in[20] 9.63 
*END

*D_NET *14 0.281027
*CONN
*P io_in[21] I
*I *419:io_in[21] I *D tiny_user_project
*CAP
1 io_in[21] 0.00200056
2 *419:io_in[21] 0.00032387
3 *14:14 0.00482312
4 *14:13 0.00449925
5 *14:11 0.0760282
6 *14:10 0.0780288
7 *419:io_in[21] *419:la_data_in[36] 0
8 *419:io_in[21] *144:17 2.04527e-05
9 *14:10 *16:8 0.00629802
10 *14:14 *419:la_data_in[8] 0.00885515
11 *14:14 *62:11 0.0129883
12 *14:14 *98:11 0.00803896
13 *14:14 *101:11 0.0553413
14 *14:14 *240:19 0.0200705
15 *14:14 *253:16 0.00371075
*RES
1 io_in[21] *14:10 32.715 
2 *14:10 *14:11 577.71 
3 *14:11 *14:13 4.5 
4 *14:13 *14:14 213.39 
5 *14:14 *419:io_in[21] 15.6365 
*END

*D_NET *15 0.19803
*CONN
*P io_in[22] I
*I *419:io_in[22] I *D tiny_user_project
*CAP
1 io_in[22] 0.00485065
2 *419:io_in[22] 0.00315846
3 *15:12 0.0488376
4 *15:11 0.0456791
5 *15:9 0.0402535
6 *15:7 0.0451042
7 *419:io_in[22] *419:la_oenb[2] 0
8 *419:io_in[22] *257:19 0.0016292
9 *15:12 *297:14 0
10 *15:12 *337:16 0.00851743
11 *15:12 *411:15 0
*RES
1 io_in[22] *15:7 37.305 
2 *15:7 *15:9 309.24 
3 *15:9 *15:11 4.5 
4 *15:11 *15:12 384.21 
5 *15:12 *419:io_in[22] 25.695 
*END

*D_NET *16 0.245573
*CONN
*P io_in[23] I
*I *419:io_in[23] I *D tiny_user_project
*CAP
1 io_in[23] 0.00107486
2 *419:io_in[23] 0.00276742
3 *16:11 0.0525196
4 *16:10 0.0497522
5 *16:8 0.0627147
6 *16:7 0.0637896
7 *16:8 io_out[18] 0.0024262
8 *16:8 io_out[21] 0.000902427
9 *16:11 *116:11 0.00332575
10 *16:11 *147:28 2.33247e-06
11 *14:10 *16:8 0.00629802
*RES
1 io_in[23] *16:7 12.825 
2 *16:7 *16:8 502.65 
3 *16:8 *16:10 4.5 
4 *16:10 *16:11 379.53 
5 *16:11 *419:io_in[23] 32.895 
*END

*D_NET *17 0.419209
*CONN
*P io_in[24] I
*I *419:io_in[24] I *D tiny_user_project
*CAP
1 io_in[24] 0.000201168
2 *419:io_in[24] 0.000639012
3 *17:19 0.0105789
4 *17:18 0.0099399
5 *17:16 0.0753353
6 *17:15 0.0753353
7 *17:13 0.0444807
8 *17:11 0.0446819
9 *419:io_in[24] *419:wbs_dat_i[2] 6.7627e-05
10 *17:16 *335:11 0
11 *17:19 *18:19 0.0514322
12 *17:19 *46:11 0.004263
13 *17:19 *47:11 0.00136267
14 *17:19 *83:11 0.0341467
15 *17:19 *96:11 0.0647825
16 *17:19 *98:11 0
17 *17:19 *240:19 0
18 *17:19 *397:13 0.00196151
*RES
1 io_in[24] *17:11 1.935 
2 *17:11 *17:13 281.61 
3 *17:13 *17:15 4.5 
4 *17:15 *17:16 572.85 
5 *17:16 *17:18 4.5 
6 *17:18 *17:19 273.33 
7 *17:19 *419:io_in[24] 17.6165 
*END

*D_NET *18 0.295757
*CONN
*P io_in[25] I
*I *419:io_in[25] I *D tiny_user_project
*CAP
1 io_in[25] 0.000125876
2 *419:io_in[25] 0.000705185
3 *18:19 0.00760432
4 *18:18 0.00689913
5 *18:16 0.0665159
6 *18:15 0.0665159
7 *18:13 0.0414258
8 *18:11 0.0415516
9 *18:19 *98:11 0
10 *18:19 *122:16 0.00160093
11 *18:19 *383:11 0.00728223
12 *18:19 *397:13 0.00409773
13 *17:19 *18:19 0.0514322
*RES
1 io_in[25] *18:11 1.395 
2 *18:11 *18:13 262.71 
3 *18:13 *18:15 4.5 
4 *18:15 *18:16 505.53 
5 *18:16 *18:18 4.5 
6 *18:18 *18:19 149.67 
7 *18:19 *419:io_in[25] 17.7965 
*END

*D_NET *19 0.170647
*CONN
*P io_in[26] I
*I *419:io_in[26] I *D tiny_user_project
*CAP
1 io_in[26] 0.00224804
2 *419:io_in[26] 0.00032754
3 *19:11 0.0485799
4 *19:10 0.0482523
5 *19:8 0.0344806
6 *19:7 0.0367287
7 *419:io_in[26] *419:wbs_stb_i 3.00199e-05
*RES
1 io_in[26] *19:7 21.465 
2 *19:7 *19:8 264.87 
3 *19:8 *19:10 4.5 
4 *19:10 *19:11 368.01 
5 *19:11 *419:io_in[26] 11.88 
*END

*D_NET *20 0.160715
*CONN
*P io_in[27] I
*I *419:io_in[27] I *D tiny_user_project
*CAP
1 io_in[27] 0.00035683
2 *419:io_in[27] 0.00012328
3 *20:19 0.0240969
4 *20:18 0.0239737
5 *20:16 0.0295386
6 *20:15 0.0295386
7 *20:13 0.026365
8 *20:11 0.0267218
*RES
1 io_in[27] *20:11 3.015 
2 *20:11 *20:13 206.01 
3 *20:13 *20:15 4.5 
4 *20:15 *20:16 224.01 
5 *20:16 *20:18 4.5 
6 *20:18 *20:19 179.01 
7 *20:19 *419:io_in[27] 9.99 
*END

*D_NET *21 0.138149
*CONN
*P io_in[28] I
*I *419:io_in[28] I *D tiny_user_project
*CAP
1 io_in[28] 0.000249598
2 *419:io_in[28] 0.00333342
3 *21:16 0.0215413
4 *21:15 0.0182079
5 *21:13 0.0466478
6 *21:11 0.0468974
7 *419:io_in[28] *419:wbs_dat_i[10] 0
8 *21:16 *419:wbs_dat_i[19] 0
9 *21:16 *192:13 0
10 *21:16 *246:11 0.00127143
*RES
1 io_in[28] *21:11 2.475 
2 *21:11 *21:13 362.61 
3 *21:13 *21:15 4.5 
4 *21:15 *21:16 137.79 
5 *21:16 *419:io_in[28] 37.62 
*END

*D_NET *22 0.15657
*CONN
*P io_in[29] I
*I *419:io_in[29] I *D tiny_user_project
*CAP
1 io_in[29] 0.000177869
2 *419:io_in[29] 0.000286267
3 *22:19 0.0189579
4 *22:18 0.0186716
5 *22:16 0.0137623
6 *22:15 0.0137623
7 *22:13 0.0271126
8 *22:11 0.0272904
9 *419:io_in[29] *419:la_oenb[28] 0.00015811
10 *22:13 *64:11 0
11 *22:13 *384:15 0.0360835
12 *22:19 *419:la_oenb[28] 0.000307102
13 *22:19 *417:16 0
*RES
1 io_in[29] *22:11 1.935 
2 *22:11 *22:13 254.61 
3 *22:13 *22:15 4.5 
4 *22:15 *22:16 102.69 
5 *22:16 *22:18 4.5 
6 *22:18 *22:19 130.41 
7 *22:19 *419:io_in[29] 11.79 
*END

*D_NET *23 0.384519
*CONN
*P io_in[2] I
*I *419:io_in[2] I *D tiny_user_project
*CAP
1 io_in[2] 0.000320061
2 *419:io_in[2] 0.000535446
3 *23:11 0.0346218
4 *23:10 0.0340863
5 *23:8 0.0314546
6 *23:7 0.0317746
7 *419:io_in[2] *145:16 0.000896881
8 *419:io_in[2] *167:16 0.00199003
9 *23:8 *32:8 0.00365242
10 *23:8 *39:12 0.153312
11 *23:8 *76:14 3.34378e-05
12 *23:11 *32:11 0
13 *23:11 *112:52 0.0918419
*RES
1 io_in[2] *23:7 7.065 
2 *23:7 *23:8 448.11 
3 *23:8 *23:10 4.5 
4 *23:10 *23:11 371.79 
5 *23:11 *419:io_in[2] 16.875 
*END

*D_NET *24 0.205537
*CONN
*P io_in[30] I
*I *419:io_in[30] I *D tiny_user_project
*CAP
1 io_in[30] 0.000113196
2 *419:io_in[30] 0.00104536
3 *24:19 0.0230147
4 *24:18 0.0219694
5 *24:16 0.0221992
6 *24:15 0.0221992
7 *24:13 0.0337058
8 *24:11 0.033819
9 *419:io_in[30] *79:10 6.70951e-06
10 *419:io_in[30] *253:13 0
11 *24:19 *419:la_oenb[27] 0.00328863
12 *24:19 *419:wbs_adr_i[21] 0.000684836
13 *24:19 *419:wbs_dat_i[1] 0.00104246
14 *24:19 *419:wbs_dat_i[28] 0.00202921
15 *24:19 *42:11 0.000159209
16 *24:19 *47:17 0.0101897
17 *24:19 *119:16 0.00168356
18 *24:19 *122:16 0
19 *24:19 *178:16 0.0126203
20 *24:19 *195:16 0.00206487
21 *24:19 *200:11 0
22 *24:19 *241:18 0.00439435
23 *24:19 *353:16 0.00694409
24 *24:19 *356:25 0.00124813
25 *24:19 *383:11 0
26 *24:19 *390:13 0.00111452
27 *24:19 *401:11 0
*RES
1 io_in[30] *24:11 1.395 
2 *24:11 *24:13 260.01 
3 *24:13 *24:15 4.5 
4 *24:15 *24:16 167.67 
5 *24:16 *24:18 4.5 
6 *24:18 *24:19 259.29 
7 *24:19 *419:io_in[30] 20.1365 
*END

*D_NET *25 0.105317
*CONN
*P io_in[31] I
*I *419:io_in[31] I *D tiny_user_project
*CAP
1 io_in[31] 0.00640172
2 *419:io_in[31] 0.000144668
3 *25:15 0.0435497
4 *25:14 0.0444746
5 *25:9 0.00747133
6 *419:io_in[31] *419:la_oenb[39] 0
7 *25:15 *419:la_oenb[39] 0.0032754
*RES
1 io_in[31] *25:9 48.465 
2 *25:9 *25:14 17.19 
3 *25:14 *25:15 336.87 
4 *25:15 *419:io_in[31] 10.17 
*END

*D_NET *26 0.293648
*CONN
*P io_in[32] I
*I *419:io_in[32] I *D tiny_user_project
*CAP
1 io_in[32] 0.000323383
2 *419:io_in[32] 0.00198581
3 *26:19 0.00742752
4 *26:18 0.0103617
5 *26:13 0.0345728
6 *26:11 0.0299762
7 *26:18 wbs_dat_o[19] 0
8 *26:18 *52:14 0
9 *26:19 *52:11 0.130346
10 *26:19 *58:11 0.000266243
11 *26:19 *93:11 0.0260394
12 *26:19 *114:11 0.0477579
13 *26:19 *403:15 0.00459148
*RES
1 io_in[32] *26:11 3.015 
2 *26:11 *26:13 227.61 
3 *26:13 *26:18 44.73 
4 *26:18 *26:19 331.65 
5 *26:19 *419:io_in[32] 25.8965 
*END

*D_NET *27 0.121926
*CONN
*P io_in[33] I
*I *419:io_in[33] I *D tiny_user_project
*CAP
1 io_in[33] 0.000242542
2 *419:io_in[33] 0.000144668
3 *27:19 0.0385358
4 *27:18 0.0383912
5 *27:16 0.00859393
6 *27:15 0.00859393
7 *27:13 0.0114788
8 *27:11 0.0117213
9 *419:io_in[33] *419:la_oenb[47] 0
10 *27:16 *375:13 0
11 *27:19 *419:la_oenb[47] 0.00422426
*RES
1 io_in[33] *27:11 2.475 
2 *27:11 *27:13 87.21 
3 *27:13 *27:15 4.5 
4 *27:15 *27:16 64.89 
5 *27:16 *27:18 4.5 
6 *27:18 *27:19 297.81 
7 *27:19 *419:io_in[33] 10.17 
*END

*D_NET *28 0.273455
*CONN
*P io_in[34] I
*I *419:io_in[34] I *D tiny_user_project
*CAP
1 io_in[34] 0.00192467
2 *419:io_in[34] 0.000228244
3 *28:11 0.0335924
4 *28:10 0.0333642
5 *28:8 0.0380758
6 *28:7 0.0400005
7 *28:8 *313:13 0
8 *28:11 *419:la_data_in[27] 0.00325604
9 *28:11 *60:21 0.123013
*RES
1 io_in[34] *28:7 18.765 
2 *28:7 *28:8 292.77 
3 *28:8 *28:10 4.5 
4 *28:10 *28:11 370.71 
5 *28:11 *419:io_in[34] 10.17 
*END

*D_NET *29 0.411251
*CONN
*P io_in[35] I
*I *419:io_in[35] I *D tiny_user_project
*CAP
1 io_in[35] 0.000113196
2 *419:io_in[35] 0.00135029
3 *29:19 0.0100431
4 *29:18 0.00869285
5 *29:16 0.0527485
6 *29:15 0.0527485
7 *29:13 0.00717625
8 *29:11 0.00728944
9 *419:io_in[35] *147:37 4.21968e-05
10 *419:io_in[35] *164:21 0
11 *419:io_in[35] *379:16 8.56716e-05
12 *29:16 *414:13 0
13 *29:19 *36:19 0.00617842
14 *29:19 *60:15 0.000742861
15 *29:19 *72:11 0
16 *29:19 *132:14 0.0227881
17 *29:19 *314:14 0.0650094
18 *29:19 *316:14 0.176242
19 *29:19 *378:8 0
*RES
1 io_in[35] *29:11 1.395 
2 *29:11 *29:13 54.81 
3 *29:13 *29:15 4.5 
4 *29:15 *29:16 403.83 
5 *29:16 *29:18 4.5 
6 *29:18 *29:19 501.57 
7 *29:19 *419:io_in[35] 21.33 
*END

*D_NET *30 0.42172
*CONN
*P io_in[36] I
*I *419:io_in[36] I *D tiny_user_project
*CAP
1 io_in[36] 0.00177706
2 *419:io_in[36] 0.0019915
3 *30:12 0.0252832
4 *30:11 0.0232917
5 *30:9 0.076951
6 *30:7 0.078728
7 *419:io_in[36] *419:wbs_dat_i[0] 9.50574e-05
8 *30:9 *304:10 0
9 *30:12 *116:11 0.171601
10 *30:12 *340:19 0.0420018
*RES
1 io_in[36] *30:7 13.185 
2 *30:7 *30:9 578.16 
3 *30:9 *30:11 4.5 
4 *30:11 *30:12 440.37 
5 *30:12 *419:io_in[36] 18.315 
*END

*D_NET *31 0.398151
*CONN
*P io_in[37] I
*I *419:io_in[37] I *D tiny_user_project
*CAP
1 io_in[37] 0.000323383
2 *419:io_in[37] 0.00151101
3 *31:16 0.0360485
4 *31:15 0.0345375