*SPEF "ieee 1481-1999"
*DESIGN "user_project_wrapper"
*DATE "11:11:11 Fri 11 11, 1111"
*VENDOR "OpenRCX"
*PROGRAM "Parallel Extraction"
*VERSION "1.0"
*DESIGN_FLOW "NAME_SCOPE LOCAL" "PIN_CAP NONE"
*DIVIDER /
*DELIMITER :
*BUS_DELIMITER []
*T_UNIT 1 NS
*C_UNIT 1 PF
*R_UNIT 1 OHM
*L_UNIT 1 HENRY

*NAME_MAP
*1 io_in[0]
*2 io_in[10]
*3 io_in[11]
*4 io_in[12]
*5 io_in[13]
*6 io_in[14]
*7 io_in[15]
*8 io_in[16]
*9 io_in[17]
*10 io_in[18]
*11 io_in[19]
*12 io_in[1]
*13 io_in[20]
*14 io_in[21]
*15 io_in[22]
*16 io_in[23]
*17 io_in[24]
*18 io_in[25]
*19 io_in[26]
*20 io_in[27]
*21 io_in[28]
*22 io_in[29]
*23 io_in[2]
*24 io_in[30]
*25 io_in[31]
*26 io_in[32]
*27 io_in[33]
*28 io_in[34]
*29 io_in[35]
*30 io_in[36]
*31 io_in[37]
*32 io_in[3]
*33 io_in[4]
*34 io_in[5]
*35 io_in[6]
*36 io_in[7]
*37 io_in[8]
*38 io_in[9]
*39 io_oeb[0]
*40 io_oeb[10]
*41 io_oeb[11]
*42 io_oeb[12]
*43 io_oeb[13]
*44 io_oeb[14]
*45 io_oeb[15]
*46 io_oeb[16]
*47 io_oeb[17]
*48 io_oeb[18]
*49 io_oeb[19]
*50 io_oeb[1]
*51 io_oeb[20]
*52 io_oeb[21]
*53 io_oeb[22]
*54 io_oeb[23]
*55 io_oeb[24]
*56 io_oeb[25]
*57 io_oeb[26]
*58 io_oeb[27]
*59 io_oeb[28]
*60 io_oeb[29]
*61 io_oeb[2]
*62 io_oeb[30]
*63 io_oeb[31]
*64 io_oeb[32]
*65 io_oeb[33]
*66 io_oeb[34]
*67 io_oeb[35]
*68 io_oeb[36]
*69 io_oeb[37]
*70 io_oeb[3]
*71 io_oeb[4]
*72 io_oeb[5]
*73 io_oeb[6]
*74 io_oeb[7]
*75 io_oeb[8]
*76 io_oeb[9]
*77 io_out[0]
*78 io_out[10]
*79 io_out[11]
*80 io_out[12]
*81 io_out[13]
*82 io_out[14]
*83 io_out[15]
*84 io_out[16]
*85 io_out[17]
*86 io_out[18]
*87 io_out[19]
*88 io_out[1]
*89 io_out[20]
*90 io_out[21]
*91 io_out[22]
*92 io_out[23]
*93 io_out[24]
*94 io_out[25]
*95 io_out[26]
*96 io_out[27]
*97 io_out[28]
*98 io_out[29]
*99 io_out[2]
*100 io_out[30]
*101 io_out[31]
*102 io_out[32]
*103 io_out[33]
*104 io_out[34]
*105 io_out[35]
*106 io_out[36]
*107 io_out[37]
*108 io_out[3]
*109 io_out[4]
*110 io_out[5]
*111 io_out[6]
*112 io_out[7]
*113 io_out[8]
*114 io_out[9]
*115 la_data_in[0]
*116 la_data_in[10]
*117 la_data_in[11]
*118 la_data_in[12]
*119 la_data_in[13]
*120 la_data_in[14]
*121 la_data_in[15]
*122 la_data_in[16]
*123 la_data_in[17]
*124 la_data_in[18]
*125 la_data_in[19]
*126 la_data_in[1]
*127 la_data_in[20]
*128 la_data_in[21]
*129 la_data_in[22]
*130 la_data_in[23]
*131 la_data_in[24]
*132 la_data_in[25]
*133 la_data_in[26]
*134 la_data_in[27]
*135 la_data_in[28]
*136 la_data_in[29]
*137 la_data_in[2]
*138 la_data_in[30]
*139 la_data_in[31]
*140 la_data_in[32]
*141 la_data_in[33]
*142 la_data_in[34]
*143 la_data_in[35]
*144 la_data_in[36]
*145 la_data_in[37]
*146 la_data_in[38]
*147 la_data_in[39]
*148 la_data_in[3]
*149 la_data_in[40]
*150 la_data_in[41]
*151 la_data_in[42]
*152 la_data_in[43]
*153 la_data_in[44]
*154 la_data_in[45]
*155 la_data_in[46]
*156 la_data_in[47]
*157 la_data_in[48]
*158 la_data_in[49]
*159 la_data_in[4]
*160 la_data_in[50]
*161 la_data_in[51]
*162 la_data_in[52]
*163 la_data_in[53]
*164 la_data_in[54]
*165 la_data_in[55]
*166 la_data_in[56]
*167 la_data_in[57]
*168 la_data_in[58]
*169 la_data_in[59]
*170 la_data_in[5]
*171 la_data_in[60]
*172 la_data_in[61]
*173 la_data_in[62]
*174 la_data_in[63]
*175 la_data_in[6]
*176 la_data_in[7]
*177 la_data_in[8]
*178 la_data_in[9]
*179 la_data_out[0]
*180 la_data_out[10]
*181 la_data_out[11]
*182 la_data_out[12]
*183 la_data_out[13]
*184 la_data_out[14]
*185 la_data_out[15]
*186 la_data_out[16]
*187 la_data_out[17]
*188 la_data_out[18]
*189 la_data_out[19]
*190 la_data_out[1]
*191 la_data_out[20]
*192 la_data_out[21]
*193 la_data_out[22]
*194 la_data_out[23]
*195 la_data_out[24]
*196 la_data_out[25]
*197 la_data_out[26]
*198 la_data_out[27]
*199 la_data_out[28]
*200 la_data_out[29]
*201 la_data_out[2]
*202 la_data_out[30]
*203 la_data_out[31]
*204 la_data_out[32]
*205 la_data_out[33]
*206 la_data_out[34]
*207 la_data_out[35]
*208 la_data_out[36]
*209 la_data_out[37]
*210 la_data_out[38]
*211 la_data_out[39]
*212 la_data_out[3]
*213 la_data_out[40]
*214 la_data_out[41]
*215 la_data_out[42]
*216 la_data_out[43]
*217 la_data_out[44]
*218 la_data_out[45]
*219 la_data_out[46]
*220 la_data_out[47]
*221 la_data_out[48]
*222 la_data_out[49]
*223 la_data_out[4]
*224 la_data_out[50]
*225 la_data_out[51]
*226 la_data_out[52]
*227 la_data_out[53]
*228 la_data_out[54]
*229 la_data_out[55]
*230 la_data_out[56]
*231 la_data_out[57]
*232 la_data_out[58]
*233 la_data_out[59]
*234 la_data_out[5]
*235 la_data_out[60]
*236 la_data_out[61]
*237 la_data_out[62]
*238 la_data_out[63]
*239 la_data_out[6]
*240 la_data_out[7]
*241 la_data_out[8]
*242 la_data_out[9]
*243 la_oenb[0]
*244 la_oenb[10]
*245 la_oenb[11]
*246 la_oenb[12]
*247 la_oenb[13]
*248 la_oenb[14]
*249 la_oenb[15]
*250 la_oenb[16]
*251 la_oenb[17]
*252 la_oenb[18]
*253 la_oenb[19]
*254 la_oenb[1]
*255 la_oenb[20]
*256 la_oenb[21]
*257 la_oenb[22]
*258 la_oenb[23]
*259 la_oenb[24]
*260 la_oenb[25]
*261 la_oenb[26]
*262 la_oenb[27]
*263 la_oenb[28]
*264 la_oenb[29]
*265 la_oenb[2]
*266 la_oenb[30]
*267 la_oenb[31]
*268 la_oenb[32]
*269 la_oenb[33]
*270 la_oenb[34]
*271 la_oenb[35]
*272 la_oenb[36]
*273 la_oenb[37]
*274 la_oenb[38]
*275 la_oenb[39]
*276 la_oenb[3]
*277 la_oenb[40]
*278 la_oenb[41]
*279 la_oenb[42]
*280 la_oenb[43]
*281 la_oenb[44]
*282 la_oenb[45]
*283 la_oenb[46]
*284 la_oenb[47]
*285 la_oenb[48]
*286 la_oenb[49]
*287 la_oenb[4]
*288 la_oenb[50]
*289 la_oenb[51]
*290 la_oenb[52]
*291 la_oenb[53]
*292 la_oenb[54]
*293 la_oenb[55]
*294 la_oenb[56]
*295 la_oenb[57]
*296 la_oenb[58]
*297 la_oenb[59]
*298 la_oenb[5]
*299 la_oenb[60]
*300 la_oenb[61]
*301 la_oenb[62]
*302 la_oenb[63]
*303 la_oenb[6]
*304 la_oenb[7]
*305 la_oenb[8]
*306 la_oenb[9]
*307 user_clock2
*308 user_irq[0]
*309 user_irq[1]
*310 user_irq[2]
*313 wb_clk_i
*314 wb_rst_i
*315 wbs_ack_o
*316 wbs_adr_i[0]
*317 wbs_adr_i[10]
*318 wbs_adr_i[11]
*319 wbs_adr_i[12]
*320 wbs_adr_i[13]
*321 wbs_adr_i[14]
*322 wbs_adr_i[15]
*323 wbs_adr_i[16]
*324 wbs_adr_i[17]
*325 wbs_adr_i[18]
*326 wbs_adr_i[19]
*327 wbs_adr_i[1]
*328 wbs_adr_i[20]
*329 wbs_adr_i[21]
*330 wbs_adr_i[22]
*331 wbs_adr_i[23]
*332 wbs_adr_i[24]
*333 wbs_adr_i[25]
*334 wbs_adr_i[26]
*335 wbs_adr_i[27]
*336 wbs_adr_i[28]
*337 wbs_adr_i[29]
*338 wbs_adr_i[2]
*339 wbs_adr_i[30]
*340 wbs_adr_i[31]
*341 wbs_adr_i[3]
*342 wbs_adr_i[4]
*343 wbs_adr_i[5]
*344 wbs_adr_i[6]
*345 wbs_adr_i[7]
*346 wbs_adr_i[8]
*347 wbs_adr_i[9]
*348 wbs_cyc_i
*349 wbs_dat_i[0]
*350 wbs_dat_i[10]
*351 wbs_dat_i[11]
*352 wbs_dat_i[12]
*353 wbs_dat_i[13]
*354 wbs_dat_i[14]
*355 wbs_dat_i[15]
*356 wbs_dat_i[16]
*357 wbs_dat_i[17]
*358 wbs_dat_i[18]
*359 wbs_dat_i[19]
*360 wbs_dat_i[1]
*361 wbs_dat_i[20]
*362 wbs_dat_i[21]
*363 wbs_dat_i[22]
*364 wbs_dat_i[23]
*365 wbs_dat_i[24]
*366 wbs_dat_i[25]
*367 wbs_dat_i[26]
*368 wbs_dat_i[27]
*369 wbs_dat_i[28]
*370 wbs_dat_i[29]
*371 wbs_dat_i[2]
*372 wbs_dat_i[30]
*373 wbs_dat_i[31]
*374 wbs_dat_i[3]
*375 wbs_dat_i[4]
*376 wbs_dat_i[5]
*377 wbs_dat_i[6]
*378 wbs_dat_i[7]
*379 wbs_dat_i[8]
*380 wbs_dat_i[9]
*381 wbs_dat_o[0]
*382 wbs_dat_o[10]
*383 wbs_dat_o[11]
*384 wbs_dat_o[12]
*385 wbs_dat_o[13]
*386 wbs_dat_o[14]
*387 wbs_dat_o[15]
*388 wbs_dat_o[16]
*389 wbs_dat_o[17]
*390 wbs_dat_o[18]
*391 wbs_dat_o[19]
*392 wbs_dat_o[1]
*393 wbs_dat_o[20]
*394 wbs_dat_o[21]
*395 wbs_dat_o[22]
*396 wbs_dat_o[23]
*397 wbs_dat_o[24]
*398 wbs_dat_o[25]
*399 wbs_dat_o[26]
*400 wbs_dat_o[27]
*401 wbs_dat_o[28]
*402 wbs_dat_o[29]
*403 wbs_dat_o[2]
*404 wbs_dat_o[30]
*405 wbs_dat_o[31]
*406 wbs_dat_o[3]
*407 wbs_dat_o[4]
*408 wbs_dat_o[5]
*409 wbs_dat_o[6]
*410 wbs_dat_o[7]
*411 wbs_dat_o[8]
*412 wbs_dat_o[9]
*413 wbs_sel_i[0]
*414 wbs_sel_i[1]
*415 wbs_sel_i[2]
*416 wbs_sel_i[3]
*417 wbs_stb_i
*418 wbs_we_i
*419 mprj

*PORTS
io_in[0] I
io_in[10] I
io_in[11] I
io_in[12] I
io_in[13] I
io_in[14] I
io_in[15] I
io_in[16] I
io_in[17] I
io_in[18] I
io_in[19] I
io_in[1] I
io_in[20] I
io_in[21] I
io_in[22] I
io_in[23] I
io_in[24] I
io_in[25] I
io_in[26] I
io_in[27] I
io_in[28] I
io_in[29] I
io_in[2] I
io_in[30] I
io_in[31] I
io_in[32] I
io_in[33] I
io_in[34] I
io_in[35] I
io_in[36] I
io_in[37] I
io_in[3] I
io_in[4] I
io_in[5] I
io_in[6] I
io_in[7] I
io_in[8] I
io_in[9] I
io_oeb[0] O
io_oeb[10] O
io_oeb[11] O
io_oeb[12] O
io_oeb[13] O
io_oeb[14] O
io_oeb[15] O
io_oeb[16] O
io_oeb[17] O
io_oeb[18] O
io_oeb[19] O
io_oeb[1] O
io_oeb[20] O
io_oeb[21] O
io_oeb[22] O
io_oeb[23] O
io_oeb[24] O
io_oeb[25] O
io_oeb[26] O
io_oeb[27] O
io_oeb[28] O
io_oeb[29] O
io_oeb[2] O
io_oeb[30] O
io_oeb[31] O
io_oeb[32] O
io_oeb[33] O
io_oeb[34] O
io_oeb[35] O
io_oeb[36] O
io_oeb[37] O
io_oeb[3] O
io_oeb[4] O
io_oeb[5] O
io_oeb[6] O
io_oeb[7] O
io_oeb[8] O
io_oeb[9] O
io_out[0] O
io_out[10] O
io_out[11] O
io_out[12] O
io_out[13] O
io_out[14] O
io_out[15] O
io_out[16] O
io_out[17] O
io_out[18] O
io_out[19] O
io_out[1] O
io_out[20] O
io_out[21] O
io_out[22] O
io_out[23] O
io_out[24] O
io_out[25] O
io_out[26] O
io_out[27] O
io_out[28] O
io_out[29] O
io_out[2] O
io_out[30] O
io_out[31] O
io_out[32] O
io_out[33] O
io_out[34] O
io_out[35] O
io_out[36] O
io_out[37] O
io_out[3] O
io_out[4] O
io_out[5] O
io_out[6] O
io_out[7] O
io_out[8] O
io_out[9] O
la_data_in[0] I
la_data_in[10] I
la_data_in[11] I
la_data_in[12] I
la_data_in[13] I
la_data_in[14] I
la_data_in[15] I
la_data_in[16] I
la_data_in[17] I
la_data_in[18] I
la_data_in[19] I
la_data_in[1] I
la_data_in[20] I
la_data_in[21] I
la_data_in[22] I
la_data_in[23] I
la_data_in[24] I
la_data_in[25] I
la_data_in[26] I
la_data_in[27] I
la_data_in[28] I
la_data_in[29] I
la_data_in[2] I
la_data_in[30] I
la_data_in[31] I
la_data_in[32] I
la_data_in[33] I
la_data_in[34] I
la_data_in[35] I
la_data_in[36] I
la_data_in[37] I
la_data_in[38] I
la_data_in[39] I
la_data_in[3] I
la_data_in[40] I
la_data_in[41] I
la_data_in[42] I
la_data_in[43] I
la_data_in[44] I
la_data_in[45] I
la_data_in[46] I
la_data_in[47] I
la_data_in[48] I
la_data_in[49] I
la_data_in[4] I
la_data_in[50] I
la_data_in[51] I
la_data_in[52] I
la_data_in[53] I
la_data_in[54] I
la_data_in[55] I
la_data_in[56] I
la_data_in[57] I
la_data_in[58] I
la_data_in[59] I
la_data_in[5] I
la_data_in[60] I
la_data_in[61] I
la_data_in[62] I
la_data_in[63] I
la_data_in[6] I
la_data_in[7] I
la_data_in[8] I
la_data_in[9] I
la_data_out[0] O
la_data_out[10] O
la_data_out[11] O
la_data_out[12] O
la_data_out[13] O
la_data_out[14] O
la_data_out[15] O
la_data_out[16] O
la_data_out[17] O
la_data_out[18] O
la_data_out[19] O
la_data_out[1] O
la_data_out[20] O
la_data_out[21] O
la_data_out[22] O
la_data_out[23] O
la_data_out[24] O
la_data_out[25] O
la_data_out[26] O
la_data_out[27] O
la_data_out[28] O
la_data_out[29] O
la_data_out[2] O
la_data_out[30] O
la_data_out[31] O
la_data_out[32] O
la_data_out[33] O
la_data_out[34] O
la_data_out[35] O
la_data_out[36] O
la_data_out[37] O
la_data_out[38] O
la_data_out[39] O
la_data_out[3] O
la_data_out[40] O
la_data_out[41] O
la_data_out[42] O
la_data_out[43] O
la_data_out[44] O
la_data_out[45] O
la_data_out[46] O
la_data_out[47] O
la_data_out[48] O
la_data_out[49] O
la_data_out[4] O
la_data_out[50] O
la_data_out[51] O
la_data_out[52] O
la_data_out[53] O
la_data_out[54] O
la_data_out[55] O
la_data_out[56] O
la_data_out[57] O
la_data_out[58] O
la_data_out[59] O
la_data_out[5] O
la_data_out[60] O
la_data_out[61] O
la_data_out[62] O
la_data_out[63] O
la_data_out[6] O
la_data_out[7] O
la_data_out[8] O
la_data_out[9] O
la_oenb[0] I
la_oenb[10] I
la_oenb[11] I
la_oenb[12] I
la_oenb[13] I
la_oenb[14] I
la_oenb[15] I
la_oenb[16] I
la_oenb[17] I
la_oenb[18] I
la_oenb[19] I
la_oenb[1] I
la_oenb[20] I
la_oenb[21] I
la_oenb[22] I
la_oenb[23] I
la_oenb[24] I
la_oenb[25] I
la_oenb[26] I
la_oenb[27] I
la_oenb[28] I
la_oenb[29] I
la_oenb[2] I
la_oenb[30] I
la_oenb[31] I
la_oenb[32] I
la_oenb[33] I
la_oenb[34] I
la_oenb[35] I
la_oenb[36] I
la_oenb[37] I
la_oenb[38] I
la_oenb[39] I
la_oenb[3] I
la_oenb[40] I
la_oenb[41] I
la_oenb[42] I
la_oenb[43] I
la_oenb[44] I
la_oenb[45] I
la_oenb[46] I
la_oenb[47] I
la_oenb[48] I
la_oenb[49] I
la_oenb[4] I
la_oenb[50] I
la_oenb[51] I
la_oenb[52] I
la_oenb[53] I
la_oenb[54] I
la_oenb[55] I
la_oenb[56] I
la_oenb[57] I
la_oenb[58] I
la_oenb[59] I
la_oenb[5] I
la_oenb[60] I
la_oenb[61] I
la_oenb[62] I
la_oenb[63] I
la_oenb[6] I
la_oenb[7] I
la_oenb[8] I
la_oenb[9] I
user_clock2 I
user_irq[0] O
user_irq[1] O
user_irq[2] O
wb_clk_i I
wb_rst_i I
wbs_ack_o O
wbs_adr_i[0] I
wbs_adr_i[10] I
wbs_adr_i[11] I
wbs_adr_i[12] I
wbs_adr_i[13] I
wbs_adr_i[14] I
wbs_adr_i[15] I
wbs_adr_i[16] I
wbs_adr_i[17] I
wbs_adr_i[18] I
wbs_adr_i[19] I
wbs_adr_i[1] I
wbs_adr_i[20] I
wbs_adr_i[21] I
wbs_adr_i[22] I
wbs_adr_i[23] I
wbs_adr_i[24] I
wbs_adr_i[25] I
wbs_adr_i[26] I
wbs_adr_i[27] I
wbs_adr_i[28] I
wbs_adr_i[29] I
wbs_adr_i[2] I
wbs_adr_i[30] I
wbs_adr_i[31] I
wbs_adr_i[3] I
wbs_adr_i[4] I
wbs_adr_i[5] I
wbs_adr_i[6] I
wbs_adr_i[7] I
wbs_adr_i[8] I
wbs_adr_i[9] I
wbs_cyc_i I
wbs_dat_i[0] I
wbs_dat_i[10] I
wbs_dat_i[11] I
wbs_dat_i[12] I
wbs_dat_i[13] I
wbs_dat_i[14] I
wbs_dat_i[15] I
wbs_dat_i[16] I
wbs_dat_i[17] I
wbs_dat_i[18] I
wbs_dat_i[19] I
wbs_dat_i[1] I
wbs_dat_i[20] I
wbs_dat_i[21] I
wbs_dat_i[22] I
wbs_dat_i[23] I
wbs_dat_i[24] I
wbs_dat_i[25] I
wbs_dat_i[26] I
wbs_dat_i[27] I
wbs_dat_i[28] I
wbs_dat_i[29] I
wbs_dat_i[2] I
wbs_dat_i[30] I
wbs_dat_i[31] I
wbs_dat_i[3] I
wbs_dat_i[4] I
wbs_dat_i[5] I
wbs_dat_i[6] I
wbs_dat_i[7] I
wbs_dat_i[8] I
wbs_dat_i[9] I
wbs_dat_o[0] O
wbs_dat_o[10] O
wbs_dat_o[11] O
wbs_dat_o[12] O
wbs_dat_o[13] O
wbs_dat_o[14] O
wbs_dat_o[15] O
wbs_dat_o[16] O
wbs_dat_o[17] O
wbs_dat_o[18] O
wbs_dat_o[19] O
wbs_dat_o[1] O
wbs_dat_o[20] O
wbs_dat_o[21] O
wbs_dat_o[22] O
wbs_dat_o[23] O
wbs_dat_o[24] O
wbs_dat_o[25] O
wbs_dat_o[26] O
wbs_dat_o[27] O
wbs_dat_o[28] O
wbs_dat_o[29] O
wbs_dat_o[2] O
wbs_dat_o[30] O
wbs_dat_o[31] O
wbs_dat_o[3] O
wbs_dat_o[4] O
wbs_dat_o[5] O
wbs_dat_o[6] O
wbs_dat_o[7] O
wbs_dat_o[8] O
wbs_dat_o[9] O
wbs_sel_i[0] I
wbs_sel_i[1] I
wbs_sel_i[2] I
wbs_sel_i[3] I
wbs_stb_i I
wbs_we_i I

*D_NET *1 0.54823
*CONN
*P io_in[0] I
*I *419:io_in[0] I *D tiny_user_project
*CAP
1 io_in[0] 0.000637361
2 *419:io_in[0] 0.000178101
3 *1:17 0.00468717
4 *1:14 0.0110787
5 *1:13 0.00656964
6 *1:11 0.0748836
7 *1:10 0.0748836
8 *1:8 0.0152533
9 *1:7 0.0158907
10 *1:11 *419:wbs_adr_i[12] 0
11 *1:11 *62:8 0.0321279
12 *1:11 *85:10 0
13 *1:11 *104:10 0
14 *1:11 *114:10 0.00465762
15 *1:11 *239:16 0.0639664
16 *1:14 *95:11 0
17 *1:14 *263:19 0.13742
18 *1:14 *361:11 0.105996
*RES
1 io_in[0] *1:7 11.025 
2 *1:7 *1:8 152.37 
3 *1:8 *1:10 4.5 
4 *1:10 *1:11 873.81 
5 *1:11 *1:13 4.5 
6 *1:13 *1:14 222.93 
7 *1:14 *1:17 49.59 
8 *1:17 *419:io_in[0] 10.98 
*END

*D_NET *2 0.373137
*CONN
*P io_in[10] I
*I *419:io_in[10] I *D tiny_user_project
*CAP
1 io_in[10] 0.00407995
2 *419:io_in[10] 0.000543013
3 *2:14 0.0113603
4 *2:13 0.0108173
5 *2:11 0.076663
6 *2:10 0.0807429
7 *419:io_in[10] *220:12 0.000629818
8 *2:14 *90:11 0.156201
9 *2:14 *394:11 0.0320995
*RES
1 io_in[10] *2:10 49.455 
2 *2:10 *2:11 836.19 
3 *2:11 *2:13 4.5 
4 *2:13 *2:14 229.05 
5 *2:14 *419:io_in[10] 21.6 
*END

*D_NET *3 0.503619
*CONN
*P io_in[11] I
*I *419:io_in[11] I *D tiny_user_project
*CAP
1 io_in[11] 0.00063398
2 *419:io_in[11] 0.00112823
3 *3:14 0.0196964
4 *3:13 0.0185682
5 *3:11 0.0769035
6 *3:10 0.0769035
7 *3:8 0.00599153
8 *3:7 0.00662551
9 *3:8 *5:8 0.000184127
10 *3:14 *419:io_in[26] 4.83334e-05
11 *3:14 *43:11 0.256366
12 *3:14 *292:19 0.0405694
*RES
1 io_in[11] *3:7 10.665 
2 *3:7 *3:8 60.21 
3 *3:8 *3:10 4.5 
4 *3:10 *3:11 839.07 
5 *3:11 *3:13 4.5 
6 *3:13 *3:14 375.93 
7 *3:14 *419:io_in[11] 24.12 
*END

*D_NET *4 0.25597
*CONN
*P io_in[12] I
*I *419:io_in[12] I *D tiny_user_project
*CAP
1 io_in[12] 0.000215438
2 *419:io_in[12] 0.00129423
3 *4:16 0.0392306
4 *4:15 0.0379364
5 *4:13 0.0777
6 *4:11 0.0779154
7 *4:16 *419:io_in[26] 0
8 *4:16 *75:11 0.00300741
9 *4:16 *128:19 0.00859261
10 *4:16 *279:15 0.00595344
11 *4:16 *287:19 0.00412445
*RES
1 io_in[12] *4:11 2.115 
2 *4:11 *4:13 847.71 
3 *4:13 *4:15 4.5 
4 *4:15 *4:16 418.95 
5 *4:16 *419:io_in[12] 26.64 
*END

*D_NET *5 0.355515
*CONN
*P io_in[13] I
*I *419:io_in[13] I *D tiny_user_project
*CAP
1 io_in[13] 0.000665831
2 *419:io_in[13] 0.00173426
3 *5:14 0.035659
4 *5:13 0.0339247
5 *5:11 0.0773335
6 *5:10 0.0773335
7 *5:8 0.0129118
8 *5:7 0.0135776
9 *5:14 *103:13 0
10 *5:14 *112:13 0.00969737
11 *5:14 *317:19 0.0924932
12 *3:8 *5:8 0.000184127
*RES
1 io_in[13] *5:7 11.025 
2 *5:7 *5:8 129.33 
3 *5:8 *5:10 4.5 
4 *5:10 *5:11 843.93 
5 *5:11 *5:13 4.5 
6 *5:13 *5:14 414.45 
7 *5:14 *419:io_in[13] 30.15 
*END

*D_NET *6 0.329678
*CONN
*P io_in[14] I
*I *419:io_in[14] I *D tiny_user_project
*CAP
1 io_in[14] 0.00397136
2 *419:io_in[14] 0.00209304
3 *6:12 0.0586509
4 *6:11 0.0565578
5 *6:9 0.0741782
6 *6:7 0.0781496
7 *6:12 *115:11 0.033327
8 *6:12 *351:19 0.02275
*RES
1 io_in[14] *6:7 43.425 
2 *6:7 *6:9 810.18 
3 *6:9 *6:11 4.5 
4 *6:11 *6:12 626.49 
5 *6:12 *419:io_in[14] 33.39 
*END

*D_NET *7 0.221895
*CONN
*P io_in[15] I
*I *419:io_in[15] I *D tiny_user_project
*CAP
1 io_in[15] 0.00174262
2 *419:io_in[15] 0.000831372
3 *7:11 0.0517581
4 *7:10 0.0509267
5 *7:8 0.0550609
6 *7:7 0.0568035
7 *419:io_in[15] *77:8 0.00428972
8 *419:io_in[15] *411:8 0.000482592
*RES
1 io_in[15] *7:7 21.825 
2 *7:7 *7:8 601.11 
3 *7:8 *7:10 4.5 
4 *7:10 *7:11 506.43 
5 *7:11 *419:io_in[15] 21.735 
*END

*D_NET *8 0.228993
*CONN
*P io_in[16] I
*I *419:io_in[16] I *D tiny_user_project
*CAP
1 io_in[16] 0.000164983
2 *419:io_in[16] 0.000125806
3 *8:22 0.0117832
4 *8:21 0.0116574
5 *8:19 0.0227088
6 *8:18 0.0227088
7 *8:16 0.0247602
8 *8:15 0.0247602
9 *8:13 0.0550794
10 *8:11 0.0552444
*RES
1 io_in[16] *8:11 1.935 
2 *8:11 *8:13 549.27 
3 *8:13 *8:15 4.5 
4 *8:15 *8:16 239.13 
5 *8:16 *8:18 4.5 
6 *8:18 *8:19 225.45 
7 *8:19 *8:21 4.5 
8 *8:21 *8:22 115.83 
9 *8:22 *419:io_in[16] 10.44 
*END

*D_NET *9 0.158913
*CONN
*P io_in[17] I
*I *419:io_in[17] I *D tiny_user_project
*CAP
1 io_in[17] 0.000291323
2 *419:io_in[17] 0.000289773
3 *9:24 0.00472294
4 *9:21 0.00524807
5 *9:16 0.0197646
6 *9:15 0.0189497
7 *9:13 0.0540738
8 *9:11 0.0543651
9 *9:21 *124:11 0.00120834
*RES
1 io_in[17] *9:11 3.015 
2 *9:11 *9:13 538.47 
3 *9:13 *9:15 4.5 
4 *9:15 *9:16 201.69 
5 *9:16 *9:21 21.15 
6 *9:21 *9:24 49.77 
7 *9:24 *419:io_in[17] 7.56 
*END

*D_NET *10 0.152564
*CONN
*P io_in[18] I
*I *419:io_in[18] I *D tiny_user_project
*CAP
1 io_in[18] 0.0014748
2 *419:io_in[18] 0.00179018
3 *10:11 0.0488971
4 *10:10 0.0471069
5 *10:8 0.0224086
6 *10:7 0.0238834
7 *419:io_in[18] *97:11 0
8 *10:11 *97:11 0.00700297
*RES
1 io_in[18] *10:7 19.125 
2 *10:7 *10:8 243.81 
3 *10:8 *10:10 4.5 
4 *10:10 *10:11 500.94 
5 *10:11 *419:io_in[18] 16.515 
*END

*D_NET *11 0.310444
*CONN
*P io_in[19] I
*I *419:io_in[19] I *D tiny_user_project
*CAP
1 io_in[19] 0.000224243
2 *419:io_in[19] 0.000473876
3 *11:16 0.00211441
4 *11:15 0.00164054
5 *11:13 0.0743034
6 *11:11 0.0745277
7 *419:io_in[19] *419:la_oenb[52] 0
8 *419:io_in[19] *178:13 0.000167249
9 *419:io_in[19] *242:19 0
10 *11:13 *180:13 0.0814456
11 *11:13 *186:13 0.00122752
12 *11:13 *307:21 0
13 *11:16 *419:wbs_adr_i[8] 0.00151279
14 *11:16 *419:wbs_dat_i[9] 0.00238725
15 *11:16 *86:8 0.0608636
16 *11:16 *211:8 0.00293752
17 *11:16 *358:16 4.89586e-05
18 *11:16 *418:20 0.00656915
*RES
1 io_in[19] *11:11 2.475 
2 *11:11 *11:13 791.37 
3 *11:13 *11:15 4.5 
4 *11:15 *11:16 88.11 
5 *11:16 *419:io_in[19] 9.405 
*END

*D_NET *12 0.476489
*CONN
*P io_in[1] I
*I *419:io_in[1] I *D tiny_user_project
*CAP
1 io_in[1] 0.000280649
2 *419:io_in[1] 0.000133816
3 *12:19 0.022564
4 *12:18 0.0224302
5 *12:16 0.0366343
6 *12:15 0.0366343
7 *12:13 0.0293546
8 *12:11 0.0296352
9 *12:13 *210:10 0
10 *12:13 *237:10 0
11 *12:16 *142:13 0
12 *12:16 *269:13 0
13 *12:19 *29:11 0.162697
14 *12:19 *64:7 0
15 *12:19 *64:9 0
16 *12:19 *133:16 0.0032121
17 *12:19 *139:16 0
18 *12:19 *152:16 0.131489
19 *12:19 *164:16 0
20 *12:19 *164:25 0.00142343
*RES
1 io_in[1] *12:11 2.655 
2 *12:11 *12:13 308.97 
3 *12:13 *12:15 4.5 
4 *12:15 *12:16 361.89 
5 *12:16 *12:18 4.5 
6 *12:18 *12:19 439.83 
7 *12:19 *419:io_in[1] 5.805 
*END

*D_NET *13 0.110768
*CONN
*P io_in[20] I
*I *419:io_in[20] I *D tiny_user_project
*CAP
1 io_in[20] 0.00437633
2 *419:io_in[20] 0.000855563
3 *13:15 0.0218872
4 *13:14 0.0216851
5 *13:9 0.0279778
6 *13:7 0.0317007
7 *419:io_in[20] *77:8 0.00217594
8 *419:io_in[20] *231:10 0.000108797
*RES
1 io_in[20] *13:7 43.245 
2 *13:7 *13:9 273.06 
3 *13:9 *13:14 15.75 
4 *13:14 *13:15 207.81 
5 *13:15 *419:io_in[20] 18.675 
*END

*D_NET *14 0.167906
*CONN
*P io_in[21] I
*I *419:io_in[21] I *D tiny_user_project
*CAP
1 io_in[21] 0.00162565
2 *419:io_in[21] 0.00160567
3 *14:11 0.069023
4 *14:10 0.0690429
5 *419:io_in[21] *58:8 0.0137395
6 *419:io_in[21] *287:16 0
7 *14:10 *16:8 0.0128691
*RES
1 io_in[21] *14:10 33.975 
2 *14:10 *14:11 784.71 
3 *14:11 *419:io_in[21] 33.435 
*END

*D_NET *15 0.160342
*CONN
*P io_in[22] I
*I *419:io_in[22] I *D tiny_user_project
*CAP
1 io_in[22] 0.000290594
2 *419:io_in[22] 0.00303411
3 *15:16 0.0293848
4 *15:15 0.0263507
5 *15:13 0.0504149
6 *15:11 0.0507055
7 *419:io_in[22] *419:la_oenb[2] 0.000161111
8 *419:io_in[22] *80:11 0
9 *15:13 *41:11 0
10 *15:16 *36:13 0
*RES
1 io_in[22] *15:11 3.015 
2 *15:11 *15:13 503.37 
3 *15:13 *15:15 4.5 
4 *15:15 *15:16 286.29 
5 *15:16 *419:io_in[22] 32.535 
*END

*D_NET *16 0.377484
*CONN
*P io_in[23] I
*I *419:io_in[23] I *D tiny_user_project
*CAP
1 io_in[23] 0.000677198
2 *419:io_in[23] 0.0011669
3 *16:11 0.0558936
4 *16:10 0.0547267
5 *16:8 0.0238918
6 *16:7 0.024569
7 *419:io_in[23] *67:10 0.000352295
8 *419:io_in[23] *179:12 0.000322223
9 *419:io_in[23] *349:32 0.00497143
10 *16:8 io_out[19] 0
11 *16:8 *54:16 0.0169724
12 *16:8 *89:14 0.0756606
13 *16:8 *90:14 0.101772
14 *16:11 *419:io_in[2] 0
15 *16:11 *178:19 0.00362501
16 *16:11 *349:32 0
17 *16:11 *358:19 1.38095e-05
18 *14:10 *16:8 0.0128691
*RES
1 io_in[23] *16:7 11.025 
2 *16:7 *16:8 394.47 
3 *16:8 *16:10 4.5 
4 *16:10 *16:11 555.03 
5 *16:11 *419:io_in[23] 39.06 
*END

*D_NET *17 0.511278
*CONN
*P io_in[24] I
*I *419:io_in[24] I *D tiny_user_project
*CAP
1 io_in[24] 0.00382718
2 *419:io_in[24] 0.000648173
3 *17:11 0.0180521
4 *17:10 0.0174039
5 *17:8 0.0707144
6 *17:7 0.0745416
7 *419:io_in[24] *248:19 8.05557e-05
8 *17:8 *25:16 0.112379
9 *17:8 *349:11 0
10 *17:11 *419:la_data_in[12] 0.00192726
11 *17:11 *419:la_oenb[23] 0.00167858
12 *17:11 *419:la_oenb[56] 0.00391661
13 *17:11 *419:wbs_adr_i[16] 0.000621697
14 *17:11 *419:wbs_dat_i[25] 0.00331572
15 *17:11 *24:17 0.00162263
16 *17:11 *34:51 0
17 *17:11 *34:63 0.000603047
18 *17:11 *58:8 0
19 *17:11 *105:12 0
20 *17:11 *196:10 0.000683866
21 *17:11 *236:13 0.000298392
22 *17:11 *280:24 0.00640349
23 *17:11 *350:16 0
24 *17:11 *358:16 0.11234
25 *17:11 *376:14 0.00122267
26 *17:11 *389:14 0.064221
27 *17:11 *390:10 0.00963632
28 *17:11 *398:10 0.00404095
29 *17:11 *415:20 0.00109833
*RES
1 io_in[24] *17:7 45.765 
2 *17:7 *17:8 779.31 
3 *17:8 *17:10 4.5 
4 *17:10 *17:11 339.57 
5 *17:11 *419:io_in[24] 10.485 
*END

*D_NET *18 0.232615
*CONN
*P io_in[25] I
*I *419:io_in[25] I *D tiny_user_project
*CAP
1 io_in[25] 0.000237175
2 *419:io_in[25] 0.000603475
3 *18:19 0.00501856
4 *18:18 0.00441509
5 *18:16 0.0710499
6 *18:15 0.0710499
7 *18:13 0.00805858
8 *18:11 0.00829575
9 *419:io_in[25] *250:19 0.00138095
10 *419:io_in[25] *398:11 0.000296905
11 *18:16 *138:11 0.00103418
12 *18:16 *342:13 0
13 *18:16 *350:19 0
14 *18:19 *47:14 0.0045384
15 *18:19 *93:8 0.0566364
16 *18:19 *333:16 0
17 *18:19 *354:8 0
*RES
1 io_in[25] *18:11 2.295 
2 *18:11 *18:13 87.21 
3 *18:13 *18:15 4.5 
4 *18:15 *18:16 713.25 
5 *18:16 *18:18 4.5 
6 *18:18 *18:19 81.99 
7 *18:19 *419:io_in[25] 14.625 
*END

*D_NET *19 0.113903
*CONN
*P io_in[26] I
*I *419:io_in[26] I *D tiny_user_project
*CAP
1 io_in[26] 0.00010158
2 *419:io_in[26] 0.00100568
3 *19:16 0.0393765
4 *19:15 0.0383708
5 *19:13 0.00984381
6 *19:11 0.00994539
7 *419:io_in[26] *70:14 0.00354357
8 *419:io_in[26] *73:8 6.21697e-05
9 *419:io_in[26] *111:18 0.00269402
10 *419:io_in[26] *111:20 0.00138846
11 *419:io_in[26] *349:14 0.00752255
12 *419:io_in[26] *414:16 0
13 *19:16 *38:12 0
14 *3:14 *419:io_in[26] 4.83334e-05
15 *4:16 *419:io_in[26] 0
*RES
1 io_in[26] *19:11 1.215 
2 *19:11 *19:13 106.11 
3 *19:13 *19:15 4.5 
4 *19:15 *19:16 382.95 
5 *19:16 *419:io_in[26] 38.025 
*END

*D_NET *20 0.128824
*CONN
*P io_in[27] I
*I *419:io_in[27] I *D tiny_user_project
*CAP
1 io_in[27] 0.000655038
2 *419:io_in[27] 0.000247114
3 *20:17 0.011653
4 *20:16 0.0114059
5 *20:14 0.0271776
6 *20:13 0.0276877
7 *20:8 0.00721232
8 *20:7 0.00735727
9 *20:7 *55:18 3.49705e-05
10 *20:8 *55:19 0.000225045
11 *20:14 *29:8 0.0351683
*RES
1 io_in[27] *20:7 11.025 
2 *20:7 *20:8 67.23 
3 *20:8 *20:13 14.13 
4 *20:13 *20:14 294.21 
5 *20:14 *20:16 4.5 
6 *20:16 *20:17 116.37 
7 *20:17 *419:io_in[27] 11.52 
*END

*D_NET *21 0.0970687
*CONN
*P io_in[28] I
*I *419:io_in[28] I *D tiny_user_project
*CAP
1 io_in[28] 0.00332911
2 *419:io_in[28] 0.000203837
3 *21:17 0.00527028
4 *21:16 0.00506644
5 *21:14 0.02226
6 *21:13 0.02226
7 *21:11 0.00659663
8 *21:10 0.00992575
9 *21:14 *101:11 0.0221566
*RES
1 io_in[28] *21:10 42.075 
2 *21:10 *21:11 70.47 
3 *21:11 *21:13 4.5 
4 *21:13 *21:14 236.25 
5 *21:14 *21:16 4.5 
6 *21:16 *21:17 51.39 
7 *21:17 *419:io_in[28] 10.98 
*END

*D_NET *22 0.142217
*CONN
*P io_in[29] I
*I *419:io_in[29] I *D tiny_user_project
*CAP
1 io_in[29] 0.00287368
2 *419:io_in[29] 0.000318632
3 *22:11 0.00795142
4 *22:10 0.00763279
5 *22:8 0.0212953
6 *22:7 0.024169
7 *22:8 *64:12 0.0468297
8 *22:11 *263:22 0.0311471
*RES
1 io_in[29] *22:7 34.965 
2 *22:7 *22:8 243.09 
3 *22:8 *22:10 4.5 
4 *22:10 *22:11 97.29 
5 *22:11 *419:io_in[29] 12.24 
*END

*D_NET *23 0.286555
*CONN
*P io_in[2] I
*I *419:io_in[2] I *D tiny_user_project
*CAP
1 io_in[2] 0.00022183
2 *419:io_in[2] 0.000188929
3 *23:11 0.0445352
4 *23:10 0.0443463
5 *23:8 0.0180046
6 *23:7 0.0182264
7 *419:io_in[2] *70:14 0.00104652
8 *419:io_in[2] *73:10 0.00104652
9 *419:io_in[2] *179:12 0.000380529
10 *419:io_in[2] *349:32 0.00128889
11 *23:8 *39:13 0.136929
12 *23:8 *40:13 0.0199267
13 *23:11 *419:io_in[3] 0.000413429
14 *16:11 *419:io_in[2] 0
*RES
1 io_in[2] *23:7 6.345 
2 *23:7 *23:8 288.45 
3 *23:8 *23:10 4.5 
4 *23:10 *23:11 475.65 
5 *23:11 *419:io_in[2] 16.335 
*END

*D_NET *24 0.302998
*CONN
*P io_in[30] I
*I *419:io_in[30] I *D tiny_user_project
*CAP
1 io_in[30] 0.000676017
2 *419:io_in[30] 0.000476063
3 *24:17 0.00658283
4 *24:16 0.00658828
5 *24:11 0.00688776
6 *24:10 0.00640625
7 *24:8 0.0362733
8 *24:7 0.0369493
9 *419:io_in[30] *104:9 0.000167249
10 *24:17 *419:la_data_in[41] 0.000559527
11 *24:17 *419:la_oenb[36] 0.000942907
12 *24:17 *419:wbs_adr_i[13] 0.00155413
13 *24:17 *419:wbs_adr_i[2] 0.00207642
14 *24:17 *419:wbs_dat_i[16] 0.00281007
15 *24:17 *58:8 0.176126
16 *24:17 *269:24 0.00184955
17 *24:17 *358:16 0.000510569
18 *24:17 *376:14 0.0066638
19 *24:17 *389:14 0.00402157
20 *24:17 *412:30 0.00325351
21 *17:11 *24:17 0.00162263
*RES
1 io_in[30] *24:7 10.665 
2 *24:7 *24:8 362.25 
3 *24:8 *24:10 4.5 
4 *24:10 *24:11 66.87 
5 *24:11 *24:16 13.59 
6 *24:16 *24:17 254.97 
7 *24:17 *419:io_in[30] 9.405 
*END

*D_NET *25 0.156432
*CONN
*P io_in[31] I
*I *419:io_in[31] I *D tiny_user_project
*CAP
1 io_in[31] 0.00405068
2 *419:io_in[31] 8.07727e-05
3 *25:19 0.00876759
4 *25:18 0.00868682
5 *25:16 0.00920845
6 *25:15 0.0132591
7 *17:8 *25:16 0.112379
*RES
1 io_in[31] *25:15 47.205 
2 *25:15 *25:16 164.79 
3 *25:16 *25:18 4.5 
4 *25:18 *25:19 86.49 
5 *25:19 *419:io_in[31] 9.9 
*END

*D_NET *26 0.501161
*CONN
*P io_in[32] I
*I *419:io_in[32] I *D tiny_user_project
*CAP
1 io_in[32] 0.00169353
2 *419:io_in[32] 0.000874788
3 *26:11 0.0100466
4 *26:10 0.00917182
5 *26:8 0.0225584
6 *26:7 0.0242519
7 *419:io_in[32] *287:13 0.00101884
8 *26:8 *102:11 0.0154053
9 *26:11 *93:8 0.255082
10 *26:11 *96:8 0.132732
11 *26:11 *113:8 0.0246812
12 *26:11 *363:12 0.0025567
13 *26:11 *405:16 0.00108797
*RES
1 io_in[32] *26:7 21.465 
2 *26:7 *26:8 235.17 
3 *26:8 *26:10 4.5 
4 *26:10 *26:11 369.27 
5 *26:11 *419:io_in[32] 14.985 
*END

*D_NET *27 0.0526952
*CONN
*P io_in[33] I
*I *419:io_in[33] I *D tiny_user_project
*CAP
1 io_in[33] 0.000167681
2 *419:io_in[33] 0.00279862
3 *27:16 0.011308
4 *27:15 0.0085094
5 *27:13 0.0101041
6 *27:11 0.0102718
7 *27:16 *141:19 0.00953549
8 *27:16 *354:11 0
*RES
1 io_in[33] *27:11 1.755 
2 *27:11 *27:13 103.41 
3 *27:13 *27:15 4.5 
4 *27:15 *27:16 124.29 
5 *27:16 *419:io_in[33] 38.97 
*END

*D_NET *28 0.132732
*CONN
*P io_in[34] I
*I *419:io_in[34] I *D tiny_user_project
*CAP
1 io_in[34] 0.00269174
2 *419:io_in[34] 0.000133816
3 *28:11 0.006377
4 *28:10 0.00624318
5 *28:8 0.0170421
6 *28:7 0.0197339
7 *28:11 *29:11 0.0805099
8 *28:11 *64:9 0
9 *28:11 *82:16 0
10 *28:11 *413:12 0
*RES
1 io_in[34] *28:7 32.265 
2 *28:7 *28:8 170.19 
3 *28:8 *28:10 4.5 
4 *28:10 *28:11 116.55 
5 *28:11 *419:io_in[34] 5.805 
*END

*D_NET *29 0.476724
*CONN
*P io_in[35] I
*I *419:io_in[35] I *D tiny_user_project
*CAP
1 io_in[35] 0.00116835
2 *419:io_in[35] 0.000160413
3 *29:11 0.00998529
4 *29:10 0.00982488
5 *29:8 0.0216007
6 *29:7 0.0227691
7 *29:11 *64:9 0
8 *29:11 *102:8 0.00313335
9 *29:11 *133:16 0.0589989
10 *29:11 *316:14 0.0707071
11 *29:11 *413:12 0
12 *12:19 *29:11 0.162697
13 *20:14 *29:8 0.0351683
14 *28:11 *29:11 0.0805099
*RES
1 io_in[35] *29:7 16.245 
2 *29:7 *29:8 238.59 
3 *29:8 *29:10 4.5 
4 *29:10 *29:11 438.21 
5 *29:11 *419:io_in[35] 5.985 
*END

*D_NET *30 0.266427
*CONN
*P io_in[36] I
*I *419:io_in[36] I *D tiny_user_project
*CAP
1 io_in[36] 0.00010158
2 *419:io_in[36] 0.000795861
3 *30:16 0.0169362
4 *30:15 0.0161403
5 *30:13 0.0469746
6 *30:11 0.0470762
7 *419:io_in[36] *419:wbs_dat_i[8] 0
8 *30:13 *206:14 0
9 *30:13 *255:14 0
10 *30:13 *382:16 0
11 *30:16 *148:11 0.115079
12 *30:16 *246:15 0.0233228
*RES
1 io_in[36] *30:11 1.215 
2 *30:11 *30:13 488.79 
3 *30:13 *30:15 4.5 
4 *30:15 *30:16 271.35 
5 *30:16 *419:io_in[36] 21.24 
*END

*D_NET *31 0.442592
*CONN
*P io_in[37] I
*I *419:io_in[37] I *D tiny_user_project
*CAP