*SPEF "ieee 1481-1999"
*DESIGN "user_module_334445762078310996"
*DATE "11:11:11 Fri 11 11, 1111"
*VENDOR "OpenRCX"
*PROGRAM "Parallel Extraction"
*VERSION "1.0"
*DESIGN_FLOW "NAME_SCOPE LOCAL" "PIN_CAP NONE"
*DIVIDER /
*DELIMITER :
*BUS_DELIMITER []
*T_UNIT 1 NS
*C_UNIT 1 PF
*R_UNIT 1 OHM
*L_UNIT 1 HENRY

*NAME_MAP
*1 io_in[0]
*2 io_in[1]
*3 io_in[2]
*4 io_in[3]
*5 io_in[4]
*6 io_in[5]
*7 io_in[6]
*8 io_in[7]
*9 net4
*10 net5
*11 net6
*12 net7
*13 net8
*14 net1
*15 net2
*16 net3
*17 FILLER_0_1005
*18 FILLER_0_1009
*19 FILLER_0_1021
*20 FILLER_0_1033
*21 FILLER_0_1037
*22 FILLER_0_1049
*23 FILLER_0_1061
*24 FILLER_0_1065
*25 FILLER_0_1077
*26 FILLER_0_1089
*27 FILLER_0_109
*28 FILLER_0_1093
*29 FILLER_0_1105
*30 FILLER_0_1117
*31 FILLER_0_1121
*32 FILLER_0_113
*33 FILLER_0_1133
*34 FILLER_0_1145
*35 FILLER_0_1149
*36 FILLER_0_1161
*37 FILLER_0_1173
*38 FILLER_0_1177
*39 FILLER_0_1189
*40 FILLER_0_1201
*41 FILLER_0_1205
*42 FILLER_0_1217
*43 FILLER_0_1229
*44 FILLER_0_1233
*45 FILLER_0_1245
*46 FILLER_0_125
*47 FILLER_0_1257
*48 FILLER_0_1261
*49 FILLER_0_1273
*50 FILLER_0_1285
*51 FILLER_0_1289
*52 FILLER_0_1301
*53 FILLER_0_1313
*54 FILLER_0_1317
*55 FILLER_0_1329
*56 FILLER_0_1341
*57 FILLER_0_1345
*58 FILLER_0_1357
*59 FILLER_0_1369
*60 FILLER_0_137
*61 FILLER_0_1373
*62 FILLER_0_1385
*63 FILLER_0_1397
*64 FILLER_0_1401
*65 FILLER_0_141
*66 FILLER_0_1413
*67 FILLER_0_1425
*68 FILLER_0_1429
*69 FILLER_0_1441
*70 FILLER_0_1453
*71 FILLER_0_1457
*72 FILLER_0_1469
*73 FILLER_0_1481
*74 FILLER_0_1485
*75 FILLER_0_1497
*76 FILLER_0_15
*77 FILLER_0_1509
*78 FILLER_0_1513
*79 FILLER_0_1525
*80 FILLER_0_153
*81 FILLER_0_1537
*82 FILLER_0_1541
*83 FILLER_0_1553
*84 FILLER_0_1565
*85 FILLER_0_1569
*86 FILLER_0_1581
*87 FILLER_0_1593
*88 FILLER_0_1597
*89 FILLER_0_1609
*90 FILLER_0_1621
*91 FILLER_0_1625
*92 FILLER_0_1637
*93 FILLER_0_1649
*94 FILLER_0_165
*95 FILLER_0_1653
*96 FILLER_0_1665
*97 FILLER_0_1677
*98 FILLER_0_1681
*99 FILLER_0_169
*100 FILLER_0_1693
*101 FILLER_0_1705
*102 FILLER_0_1709
*103 FILLER_0_1721
*104 FILLER_0_1733
*105 FILLER_0_1737
*106 FILLER_0_1749
*107 FILLER_0_1761
*108 FILLER_0_1765
*109 FILLER_0_1777
*110 FILLER_0_1789
*111 FILLER_0_1793
*112 FILLER_0_1805
*113 FILLER_0_181
*114 FILLER_0_1817
*115 FILLER_0_1821
*116 FILLER_0_1833
*117 FILLER_0_1845
*118 FILLER_0_1849
*119 FILLER_0_1861
*120 FILLER_0_1873
*121 FILLER_0_1877
*122 FILLER_0_1889
*123 FILLER_0_1901
*124 FILLER_0_1905
*125 FILLER_0_1917
*126 FILLER_0_193
*127 FILLER_0_197
*128 FILLER_0_209
*129 FILLER_0_221
*130 FILLER_0_225
*131 FILLER_0_237
*132 FILLER_0_249
*133 FILLER_0_253
*134 FILLER_0_265
*135 FILLER_0_27
*136 FILLER_0_277
*137 FILLER_0_281
*138 FILLER_0_29
*139 FILLER_0_293
*140 FILLER_0_3
*141 FILLER_0_305
*142 FILLER_0_309
*143 FILLER_0_321
*144 FILLER_0_333
*145 FILLER_0_337
*146 FILLER_0_349
*147 FILLER_0_361
*148 FILLER_0_365
*149 FILLER_0_377
*150 FILLER_0_389
*151 FILLER_0_393
*152 FILLER_0_405
*153 FILLER_0_41
*154 FILLER_0_417
*155 FILLER_0_421
*156 FILLER_0_433
*157 FILLER_0_445
*158 FILLER_0_449
*159 FILLER_0_461
*160 FILLER_0_473
*161 FILLER_0_477
*162 FILLER_0_489
*163 FILLER_0_501
*164 FILLER_0_505
*165 FILLER_0_517
*166 FILLER_0_529
*167 FILLER_0_53
*168 FILLER_0_533
*169 FILLER_0_545
*170 FILLER_0_557
*171 FILLER_0_561
*172 FILLER_0_57
*173 FILLER_0_573
*174 FILLER_0_585
*175 FILLER_0_589
*176 FILLER_0_601
*177 FILLER_0_613
*178 FILLER_0_617
*179 FILLER_0_629
*180 FILLER_0_641
*181 FILLER_0_645
*182 FILLER_0_657
*183 FILLER_0_669
*184 FILLER_0_673
*185 FILLER_0_685
*186 FILLER_0_69
*187 FILLER_0_697
*188 FILLER_0_701
*189 FILLER_0_713
*190 FILLER_0_725
*191 FILLER_0_729
*192 FILLER_0_741
*193 FILLER_0_753
*194 FILLER_0_757
*195 FILLER_0_769
*196 FILLER_0_781
*197 FILLER_0_785
*198 FILLER_0_790
*199 FILLER_0_802
*200 FILLER_0_81
*201 FILLER_0_810
*202 FILLER_0_813
*203 FILLER_0_825
*204 FILLER_0_837
*205 FILLER_0_841
*206 FILLER_0_85
*207 FILLER_0_853
*208 FILLER_0_865
*209 FILLER_0_869
*210 FILLER_0_881
*211 FILLER_0_893
*212 FILLER_0_897
*213 FILLER_0_909
*214 FILLER_0_921
*215 FILLER_0_925
*216 FILLER_0_937
*217 FILLER_0_949
*218 FILLER_0_953
*219 FILLER_0_965
*220 FILLER_0_97
*221 FILLER_0_977
*222 FILLER_0_981
*223 FILLER_0_993
*224 FILLER_100_1005
*225 FILLER_100_1017
*226 FILLER_100_1029
*227 FILLER_100_1035
*228 FILLER_100_1037
*229 FILLER_100_1049
*230 FILLER_100_1061
*231 FILLER_100_1073
*232 FILLER_100_1085
*233 FILLER_100_109
*234 FILLER_100_1091
*235 FILLER_100_1093
*236 FILLER_100_1105
*237 FILLER_100_1117
*238 FILLER_100_1129
*239 FILLER_100_1141
*240 FILLER_100_1147
*241 FILLER_100_1149
*242 FILLER_100_1161
*243 FILLER_100_1173
*244 FILLER_100_1185
*245 FILLER_100_1197
*246 FILLER_100_1203
*247 FILLER_100_1205
*248 FILLER_100_121
*249 FILLER_100_1217
*250 FILLER_100_1229
*251 FILLER_100_1241
*252 FILLER_100_1253
*253 FILLER_100_1259
*254 FILLER_100_1261
*255 FILLER_100_1273
*256 FILLER_100_1285
*257 FILLER_100_1297
*258 FILLER_100_1309
*259 FILLER_100_1315
*260 FILLER_100_1317
*261 FILLER_100_1329
*262 FILLER_100_133
*263 FILLER_100_1341
*264 FILLER_100_1353
*265 FILLER_100_1365
*266 FILLER_100_1371
*267 FILLER_100_1373
*268 FILLER_100_1385
*269 FILLER_100_139
*270 FILLER_100_1397
*271 FILLER_100_1409
*272 FILLER_100_141
*273 FILLER_100_1421
*274 FILLER_100_1427
*275 FILLER_100_1429
*276 FILLER_100_1441
*277 FILLER_100_1453
*278 FILLER_100_1465
*279 FILLER_100_1477
*280 FILLER_100_1483
*281 FILLER_100_1485
*282 FILLER_100_1497
*283 FILLER_100_15
*284 FILLER_100_1509
*285 FILLER_100_1521
*286 FILLER_100_153
*287 FILLER_100_1533
*288 FILLER_100_1539
*289 FILLER_100_1541
*290 FILLER_100_1553
*291 FILLER_100_1565
*292 FILLER_100_1577
*293 FILLER_100_1589
*294 FILLER_100_1595
*295 FILLER_100_1597
*296 FILLER_100_1609
*297 FILLER_100_1621
*298 FILLER_100_1633
*299 FILLER_100_1645
*300 FILLER_100_165
*301 FILLER_100_1651
*302 FILLER_100_1653
*303 FILLER_100_1665
*304 FILLER_100_1677
*305 FILLER_100_1689
*306 FILLER_100_1701
*307 FILLER_100_1707
*308 FILLER_100_1709
*309 FILLER_100_1721
*310 FILLER_100_1733
*311 FILLER_100_1745
*312 FILLER_100_1757
*313 FILLER_100_1763
*314 FILLER_100_1765
*315 FILLER_100_177
*316 FILLER_100_1777
*317 FILLER_100_1789
*318 FILLER_100_1801
*319 FILLER_100_1813
*320 FILLER_100_1819
*321 FILLER_100_1821
*322 FILLER_100_1833
*323 FILLER_100_1845
*324 FILLER_100_1857
*325 FILLER_100_1869
*326 FILLER_100_1875
*327 FILLER_100_1877
*328 FILLER_100_1889
*329 FILLER_100_189
*330 FILLER_100_1901
*331 FILLER_100_1913
*332 FILLER_100_1925
*333 FILLER_100_195
*334 FILLER_100_197
*335 FILLER_100_209
*336 FILLER_100_221
*337 FILLER_100_233
*338 FILLER_100_245
*339 FILLER_100_251
*340 FILLER_100_253
*341 FILLER_100_265
*342 FILLER_100_27
*343 FILLER_100_277
*344 FILLER_100_289
*345 FILLER_100_29
*346 FILLER_100_3
*347 FILLER_100_301
*348 FILLER_100_307
*349 FILLER_100_309
*350 FILLER_100_321
*351 FILLER_100_333
*352 FILLER_100_345
*353 FILLER_100_357
*354 FILLER_100_363
*355 FILLER_100_365
*356 FILLER_100_377
*357 FILLER_100_389
*358 FILLER_100_401
*359 FILLER_100_41
*360 FILLER_100_413
*361 FILLER_100_419
*362 FILLER_100_421
*363 FILLER_100_433
*364 FILLER_100_445
*365 FILLER_100_457
*366 FILLER_100_469
*367 FILLER_100_475
*368 FILLER_100_477
*369 FILLER_100_489
*370 FILLER_100_501
*371 FILLER_100_513
*372 FILLER_100_525
*373 FILLER_100_53
*374 FILLER_100_531
*375 FILLER_100_533
*376 FILLER_100_545
*377 FILLER_100_557
*378 FILLER_100_569
*379 FILLER_100_581
*380 FILLER_100_587
*381 FILLER_100_589
*382 FILLER_100_601
*383 FILLER_100_613
*384 FILLER_100_625
*385 FILLER_100_637
*386 FILLER_100_643
*387 FILLER_100_645
*388 FILLER_100_65
*389 FILLER_100_657
*390 FILLER_100_669
*391 FILLER_100_681
*392 FILLER_100_693
*393 FILLER_100_699
*394 FILLER_100_701
*395 FILLER_100_713
*396 FILLER_100_725
*397 FILLER_100_737
*398 FILLER_100_749
*399 FILLER_100_755
*400 FILLER_100_757
*401 FILLER_100_769
*402 FILLER_100_77
*403 FILLER_100_781
*404 FILLER_100_793
*405 FILLER_100_805
*406 FILLER_100_811
*407 FILLER_100_813
*408 FILLER_100_825
*409 FILLER_100_83
*410 FILLER_100_837
*411 FILLER_100_849
*412 FILLER_100_85
*413 FILLER_100_861
*414 FILLER_100_867
*415 FILLER_100_869
*416 FILLER_100_881
*417 FILLER_100_893
*418 FILLER_100_905
*419 FILLER_100_917
*420 FILLER_100_923
*421 FILLER_100_925
*422 FILLER_100_937
*423 FILLER_100_949
*424 FILLER_100_961
*425 FILLER_100_97
*426 FILLER_100_973
*427 FILLER_100_979
*428 FILLER_100_981
*429 FILLER_100_993
*430 FILLER_101_1001
*431 FILLER_101_1007
*432 FILLER_101_1009
*433 FILLER_101_1021
*434 FILLER_101_1033
*435 FILLER_101_1045
*436 FILLER_101_105
*437 FILLER_101_1057
*438 FILLER_101_1063
*439 FILLER_101_1065
*440 FILLER_101_1077
*441 FILLER_101_1089
*442 FILLER_101_1101
*443 FILLER_101_111
*444 FILLER_101_1113
*445 FILLER_101_1119
*446 FILLER_101_1121
*447 FILLER_101_113
*448 FILLER_101_1133
*449 FILLER_101_1145
*450 FILLER_101_1157
*451 FILLER_101_1169
*452 FILLER_101_1175
*453 FILLER_101_1177
*454 FILLER_101_1189
*455 FILLER_101_1201
*456 FILLER_101_1213
*457 FILLER_101_1225
*458 FILLER_101_1231
*459 FILLER_101_1233
*460 FILLER_101_1245
*461 FILLER_101_125
*462 FILLER_101_1257
*463 FILLER_101_1269
*464 FILLER_101_1281
*465 FILLER_101_1287
*466 FILLER_101_1289
*467 FILLER_101_1301
*468 FILLER_101_1313
*469 FILLER_101_1325
*470 FILLER_101_1337
*471 FILLER_101_1343
*472 FILLER_101_1345
*473 FILLER_101_1357
*474 FILLER_101_1369
*475 FILLER_101_137
*476 FILLER_101_1381
*477 FILLER_101_1393
*478 FILLER_101_1399
*479 FILLER_101_1401
*480 FILLER_101_1413
*481 FILLER_101_1425
*482 FILLER_101_1437
*483 FILLER_101_1449
*484 FILLER_101_1455
*485 FILLER_101_1457
*486 FILLER_101_1469
*487 FILLER_101_1481
*488 FILLER_101_149
*489 FILLER_101_1493
*490 FILLER_101_15
*491 FILLER_101_1505
*492 FILLER_101_1511
*493 FILLER_101_1513
*494 FILLER_101_1525
*495 FILLER_101_1537
*496 FILLER_101_1549
*497 FILLER_101_1561
*498 FILLER_101_1567
*499 FILLER_101_1569
*500 FILLER_101_1581
*501 FILLER_101_1593
*502 FILLER_101_1605
*503 FILLER_101_161
*504 FILLER_101_1617
*505 FILLER_101_1623
*506 FILLER_101_1625
*507 FILLER_101_1637
*508 FILLER_101_1649
*509 FILLER_101_1661
*510 FILLER_101_167
*511 FILLER_101_1673
*512 FILLER_101_1679
*513 FILLER_101_1681
*514 FILLER_101_169
*515 FILLER_101_1693
*516 FILLER_101_1705
*517 FILLER_101_1717
*518 FILLER_101_1729
*519 FILLER_101_1735
*520 FILLER_101_1737
*521 FILLER_101_1749
*522 FILLER_101_1761
*523 FILLER_101_1773
*524 FILLER_101_1785
*525 FILLER_101_1791
*526 FILLER_101_1793
*527 FILLER_101_1805
*528 FILLER_101_181
*529 FILLER_101_1817
*530 FILLER_101_1829
*531 FILLER_101_1841
*532 FILLER_101_1847
*533 FILLER_101_1849
*534 FILLER_101_1861
*535 FILLER_101_1873
*536 FILLER_101_1885
*537 FILLER_101_1897
*538 FILLER_101_1903
*539 FILLER_101_1905
*540 FILLER_101_1917
*541 FILLER_101_193
*542 FILLER_101_205
*543 FILLER_101_217
*544 FILLER_101_223
*545 FILLER_101_225
*546 FILLER_101_237
*547 FILLER_101_249
*548 FILLER_101_261
*549 FILLER_101_27
*550 FILLER_101_273
*551 FILLER_101_279
*552 FILLER_101_281
*553 FILLER_101_293
*554 FILLER_101_3
*555 FILLER_101_305
*556 FILLER_101_317
*557 FILLER_101_329
*558 FILLER_101_335
*559 FILLER_101_337
*560 FILLER_101_349
*561 FILLER_101_361
*562 FILLER_101_373
*563 FILLER_101_385
*564 FILLER_101_39
*565 FILLER_101_391
*566 FILLER_101_393
*567 FILLER_101_405
*568 FILLER_101_417
*569 FILLER_101_429
*570 FILLER_101_441
*571 FILLER_101_447
*572 FILLER_101_449
*573 FILLER_101_461
*574 FILLER_101_473
*575 FILLER_101_485
*576 FILLER_101_497
*577 FILLER_101_503
*578 FILLER_101_505
*579 FILLER_101_51
*580 FILLER_101_517
*581 FILLER_101_529
*582 FILLER_101_541
*583 FILLER_101_55
*584 FILLER_101_553
*585 FILLER_101_559
*586 FILLER_101_561
*587 FILLER_101_57
*588 FILLER_101_573
*589 FILLER_101_585
*590 FILLER_101_597
*591 FILLER_101_609
*592 FILLER_101_615
*593 FILLER_101_617
*594 FILLER_101_629
*595 FILLER_101_641
*596 FILLER_101_653
*597 FILLER_101_665
*598 FILLER_101_671
*599 FILLER_101_673
*600 FILLER_101_685
*601 FILLER_101_69
*602 FILLER_101_697
*603 FILLER_101_709
*604 FILLER_101_721
*605 FILLER_101_727
*606 FILLER_101_729
*607 FILLER_101_741
*608 FILLER_101_753
*609 FILLER_101_765
*610 FILLER_101_777
*611 FILLER_101_783
*612 FILLER_101_785
*613 FILLER_101_797
*614 FILLER_101_809
*615 FILLER_101_81
*616 FILLER_101_821
*617 FILLER_101_833
*618 FILLER_101_839
*619 FILLER_101_841
*620 FILLER_101_853
*621 FILLER_101_865
*622 FILLER_101_877
*623 FILLER_101_889
*624 FILLER_101_895
*625 FILLER_101_897
*626 FILLER_101_909
*627 FILLER_101_921
*628 FILLER_101_93
*629 FILLER_101_933
*630 FILLER_101_945
*631 FILLER_101_951
*632 FILLER_101_953
*633 FILLER_101_965
*634 FILLER_101_977
*635 FILLER_101_989
*636 FILLER_102_1005
*637 FILLER_102_1017
*638 FILLER_102_1029
*639 FILLER_102_1035
*640 FILLER_102_1037
*641 FILLER_102_1049
*642 FILLER_102_1061
*643 FILLER_102_1073
*644 FILLER_102_1085
*645 FILLER_102_109
*646 FILLER_102_1091
*647 FILLER_102_1093
*648 FILLER_102_1105
*649 FILLER_102_1117
*650 FILLER_102_1129
*651 FILLER_102_1141
*652 FILLER_102_1147
*653 FILLER_102_1149
*654 FILLER_102_1161
*655 FILLER_102_1173
*656 FILLER_102_1185
*657 FILLER_102_1197
*658 FILLER_102_1203
*659 FILLER_102_1205
*660 FILLER_102_121
*661 FILLER_102_1217
*662 FILLER_102_1229
*663 FILLER_102_1241
*664 FILLER_102_1253
*665 FILLER_102_1259
*666 FILLER_102_1261
*667 FILLER_102_1273
*668 FILLER_102_1285
*669 FILLER_102_1297
*670 FILLER_102_1309
*671 FILLER_102_1315
*672 FILLER_102_1317
*673 FILLER_102_1329
*674 FILLER_102_133
*675 FILLER_102_1341
*676 FILLER_102_1353
*677 FILLER_102_1365
*678 FILLER_102_1371
*679 FILLER_102_1373
*680 FILLER_102_1385
*681 FILLER_102_139
*682 FILLER_102_1397
*683 FILLER_102_1409
*684 FILLER_102_141
*685 FILLER_102_1421
*686 FILLER_102_1427
*687 FILLER_102_1429
*688 FILLER_102_1441
*689 FILLER_102_1453
*690 FILLER_102_1465
*691 FILLER_102_1477
*692 FILLER_102_1483
*693 FILLER_102_1485
*694 FILLER_102_1497
*695 FILLER_102_15
*696 FILLER_102_1509
*697 FILLER_102_1521
*698 FILLER_102_153
*699 FILLER_102_1533
*700 FILLER_102_1539
*701 FILLER_102_1541
*702 FILLER_102_1553
*703 FILLER_102_1565
*704 FILLER_102_1577
*705 FILLER_102_1589
*706 FILLER_102_1595
*707 FILLER_102_1597
*708 FILLER_102_1609
*709 FILLER_102_1621
*710 FILLER_102_1633
*711 FILLER_102_1645
*712 FILLER_102_165
*713 FILLER_102_1651
*714 FILLER_102_1653
*715 FILLER_102_1665
*716 FILLER_102_1677
*717 FILLER_102_1689
*718 FILLER_102_1701
*719 FILLER_102_1707
*720 FILLER_102_1709
*721 FILLER_102_1721
*722 FILLER_102_1733
*723 FILLER_102_1745
*724 FILLER_102_1757
*725 FILLER_102_1763
*726 FILLER_102_1765
*727 FILLER_102_177
*728 FILLER_102_1777
*729 FILLER_102_1789
*730 FILLER_102_1801
*731 FILLER_102_1813
*732 FILLER_102_1819
*733 FILLER_102_1821
*734 FILLER_102_1833
*735 FILLER_102_1845
*736 FILLER_102_1857
*737 FILLER_102_1869
*738 FILLER_102_1875
*739 FILLER_102_1877
*740 FILLER_102_1889
*741 FILLER_102_189
*742 FILLER_102_1901
*743 FILLER_102_1913
*744 FILLER_102_1925
*745 FILLER_102_195
*746 FILLER_102_197
*747 FILLER_102_209
*748 FILLER_102_221
*749 FILLER_102_233
*750 FILLER_102_245
*751 FILLER_102_251
*752 FILLER_102_253
*753 FILLER_102_265
*754 FILLER_102_27
*755 FILLER_102_277
*756 FILLER_102_289
*757 FILLER_102_29
*758 FILLER_102_3
*759 FILLER_102_301
*760 FILLER_102_307
*761 FILLER_102_309
*762 FILLER_102_321
*763 FILLER_102_333
*764 FILLER_102_345
*765 FILLER_102_357
*766 FILLER_102_363
*767 FILLER_102_365
*768 FILLER_102_377
*769 FILLER_102_389
*770 FILLER_102_401
*771 FILLER_102_41
*772 FILLER_102_413
*773 FILLER_102_419
*774 FILLER_102_421
*775 FILLER_102_433
*776 FILLER_102_445
*777 FILLER_102_457
*778 FILLER_102_469
*779 FILLER_102_475
*780 FILLER_102_477
*781 FILLER_102_489
*782 FILLER_102_501
*783 FILLER_102_513
*784 FILLER_102_525
*785 FILLER_102_53
*786 FILLER_102_531
*787 FILLER_102_533
*788 FILLER_102_545
*789 FILLER_102_557
*790 FILLER_102_569
*791 FILLER_102_581
*792 FILLER_102_587
*793 FILLER_102_589
*794 FILLER_102_601
*795 FILLER_102_613
*796 FILLER_102_625
*797 FILLER_102_637
*798 FILLER_102_643
*799 FILLER_102_645
*800 FILLER_102_65
*801 FILLER_102_657
*802 FILLER_102_669
*803 FILLER_102_681
*804 FILLER_102_693
*805 FILLER_102_699
*806 FILLER_102_701
*807 FILLER_102_713
*808 FILLER_102_725
*809 FILLER_102_737
*810 FILLER_102_749
*811 FILLER_102_755
*812 FILLER_102_757
*813 FILLER_102_769
*814 FILLER_102_77
*815 FILLER_102_781
*816 FILLER_102_793
*817 FILLER_102_805
*818 FILLER_102_811
*819 FILLER_102_813
*820 FILLER_102_825
*821 FILLER_102_83
*822 FILLER_102_837
*823 FILLER_102_849
*824 FILLER_102_85
*825 FILLER_102_861
*826 FILLER_102_867
*827 FILLER_102_869
*828 FILLER_102_881
*829 FILLER_102_893
*830 FILLER_102_905
*831 FILLER_102_917
*832 FILLER_102_923
*833 FILLER_102_925
*834 FILLER_102_937
*835 FILLER_102_949
*836 FILLER_102_961
*837 FILLER_102_97
*838 FILLER_102_973
*839 FILLER_102_979
*840 FILLER_102_981
*841 FILLER_102_993
*842 FILLER_103_1001
*843 FILLER_103_1007
*844 FILLER_103_1009
*845 FILLER_103_1021
*846 FILLER_103_1033
*847 FILLER_103_1045
*848 FILLER_103_105
*849 FILLER_103_1057
*850 FILLER_103_1063
*851 FILLER_103_1065
*852 FILLER_103_1077
*853 FILLER_103_1089
*854 FILLER_103_1101
*855 FILLER_103_111
*856 FILLER_103_1113
*857 FILLER_103_1119
*858 FILLER_103_1121
*859 FILLER_103_113
*860 FILLER_103_1133
*861 FILLER_103_1145
*862 FILLER_103_1157
*863 FILLER_103_1169
*864 FILLER_103_1175
*865 FILLER_103_1177
*866 FILLER_103_1189
*867 FILLER_103_1201
*868 FILLER_103_1213
*869 FILLER_103_1225
*870 FILLER_103_1231
*871 FILLER_103_1233
*872 FILLER_103_1245
*873 FILLER_103_125
*874 FILLER_103_1257
*875 FILLER_103_1269
*876 FILLER_103_1281
*877 FILLER_103_1287
*878 FILLER_103_1289
*879 FILLER_103_1301
*880 FILLER_103_1313
*881 FILLER_103_1325
*882 FILLER_103_1337
*883 FILLER_103_1343
*884 FILLER_103_1345
*885 FILLER_103_1357
*886 FILLER_103_1369
*887 FILLER_103_137
*888 FILLER_103_1381
*889 FILLER_103_1393
*890 FILLER_103_1399
*891 FILLER_103_1401
*892 FILLER_103_1413
*893 FILLER_103_1425
*894 FILLER_103_1437
*895 FILLER_103_1449
*896 FILLER_103_1455
*897 FILLER_103_1457
*898 FILLER_103_1469
*899 FILLER_103_1481
*900 FILLER_103_149
*901 FILLER_103_1493
*902 FILLER_103_15
*903 FILLER_103_1505
*904 FILLER_103_1511
*905 FILLER_103_1513
*906 FILLER_103_1525
*907 FILLER_103_1537
*908 FILLER_103_1549
*909 FILLER_103_1561
*910 FILLER_103_1567
*911 FILLER_103_1569
*912 FILLER_103_1581
*913 FILLER_103_1593
*914 FILLER_103_1605
*915 FILLER_103_161
*916 FILLER_103_1617
*917 FILLER_103_1623
*918 FILLER_103_1625
*919 FILLER_103_1637
*920 FILLER_103_1649
*921 FILLER_103_1661
*922 FILLER_103_167
*923 FILLER_103_1673
*924 FILLER_103_1679
*925 FILLER_103_1681
*926 FILLER_103_169
*927 FILLER_103_1693
*928 FILLER_103_1705
*929 FILLER_103_1717
*930 FILLER_103_1729
*931 FILLER_103_1735
*932 FILLER_103_1737
*933 FILLER_103_1749
*934 FILLER_103_1761
*935 FILLER_103_1773
*936 FILLER_103_1785
*937 FILLER_103_1791
*938 FILLER_103_1793
*939 FILLER_103_1805
*940 FILLER_103_181
*941 FILLER_103_1817
*942 FILLER_103_1829
*943 FILLER_103_1841
*944 FILLER_103_1847
*945 FILLER_103_1849
*946 FILLER_103_1861
*947 FILLER_103_1873
*948 FILLER_103_1885
*949 FILLER_103_1897
*950 FILLER_103_1903
*951 FILLER_103_1905
*952 FILLER_103_1917
*953 FILLER_103_193
*954 FILLER_103_205
*955 FILLER_103_217
*956 FILLER_103_223
*957 FILLER_103_225
*958 FILLER_103_237
*959 FILLER_103_249
*960 FILLER_103_261
*961 FILLER_103_27
*962 FILLER_103_273
*963 FILLER_103_279
*964 FILLER_103_281
*965 FILLER_103_293
*966 FILLER_103_3
*967 FILLER_103_305
*968 FILLER_103_317
*969 FILLER_103_329
*970 FILLER_103_335
*971 FILLER_103_337
*972 FILLER_103_349
*973 FILLER_103_361
*974 FILLER_103_373
*975 FILLER_103_385
*976 FILLER_103_39
*977 FILLER_103_391
*978 FILLER_103_393
*979 FILLER_103_405
*980 FILLER_103_417
*981 FILLER_103_429
*982 FILLER_103_441
*983 FILLER_103_447
*984 FILLER_103_449
*985 FILLER_103_461
*986 FILLER_103_473
*987 FILLER_103_485
*988 FILLER_103_497
*989 FILLER_103_503
*990 FILLER_103_505
*991 FILLER_103_51
*992 FILLER_103_517
*993 FILLER_103_529
*994 FILLER_103_541
*995 FILLER_103_55
*996 FILLER_103_553
*997 FILLER_103_559
*998 FILLER_103_561
*999 FILLER_103_57
*1000 FILLER_103_573
*1001 FILLER_103_585
*1002 FILLER_103_597
*1003 FILLER_103_609
*1004 FILLER_103_615
*1005 FILLER_103_617
*1006 FILLER_103_629
*1007 FILLER_103_641
*1008 FILLER_103_653
*1009 FILLER_103_665
*1010 FILLER_103_671
*1011 FILLER_103_673
*1012 FILLER_103_685
*1013 FILLER_103_69
*1014 FILLER_103_697
*1015 FILLER_103_709
*1016 FILLER_103_721
*1017 FILLER_103_727
*1018 FILLER_103_729
*1019 FILLER_103_741
*1020 FILLER_103_753
*1021 FILLER_103_765
*1022 FILLER_103_777
*1023 FILLER_103_783
*1024 FILLER_103_785
*1025 FILLER_103_797
*1026 FILLER_103_809
*1027 FILLER_103_81
*1028 FILLER_103_821
*1029 FILLER_103_833
*1030 FILLER_103_839
*1031 FILLER_103_841
*1032 FILLER_103_853
*1033 FILLER_103_865
*1034 FILLER_103_877
*1035 FILLER_103_889
*1036 FILLER_103_895
*1037 FILLER_103_897
*1038 FILLER_103_909
*1039 FILLER_103_921
*1040 FILLER_103_93
*1041 FILLER_103_933
*1042 FILLER_103_945
*1043 FILLER_103_951
*1044 FILLER_103_953
*1045 FILLER_103_965
*1046 FILLER_103_977
*1047 FILLER_103_989
*1048 FILLER_104_1005
*1049 FILLER_104_1017
*1050 FILLER_104_1029
*1051 FILLER_104_1035
*1052 FILLER_104_1037
*1053 FILLER_104_1049
*1054 FILLER_104_1061
*1055 FILLER_104_1073
*1056 FILLER_104_1085
*1057 FILLER_104_109
*1058 FILLER_104_1091
*1059 FILLER_104_1093
*1060 FILLER_104_1105
*1061 FILLER_104_1117
*1062 FILLER_104_1129
*1063 FILLER_104_1141
*1064 FILLER_104_1147
*1065 FILLER_104_1149
*1066 FILLER_104_1161
*1067 FILLER_104_1173
*1068 FILLER_104_1185
*1069 FILLER_104_1197
*1070 FILLER_104_1203
*1071 FILLER_104_1205
*1072 FILLER_104_121
*1073 FILLER_104_1217
*1074 FILLER_104_1229
*1075 FILLER_104_1241
*1076 FILLER_104_1253
*1077 FILLER_104_1259
*1078 FILLER_104_1261
*1079 FILLER_104_1273
*1080 FILLER_104_1285
*1081 FILLER_104_1297
*1082 FILLER_104_1309
*1083 FILLER_104_1315
*1084 FILLER_104_1317
*1085 FILLER_104_1329
*1086 FILLER_104_133
*1087 FILLER_104_1341
*1088 FILLER_104_1353
*1089 FILLER_104_1365
*1090 FILLER_104_1371
*1091 FILLER_104_1373
*1092 FILLER_104_1385
*1093 FILLER_104_139
*1094 FILLER_104_1397
*1095 FILLER_104_1409
*1096 FILLER_104_141
*1097 FILLER_104_1421
*1098 FILLER_104_1427
*1099 FILLER_104_1429
*1100 FILLER_104_1441
*1101 FILLER_104_1453
*1102 FILLER_104_1465
*1103 FILLER_104_1477
*1104 FILLER_104_1483
*1105 FILLER_104_1485
*1106 FILLER_104_1497
*1107 FILLER_104_15
*1108 FILLER_104_1509
*1109 FILLER_104_1521
*1110 FILLER_104_153
*1111 FILLER_104_1533
*1112 FILLER_104_1539
*1113 FILLER_104_1541
*1114 FILLER_104_1553
*1115 FILLER_104_1565
*1116 FILLER_104_1577
*1117 FILLER_104_1589
*1118 FILLER_104_1595
*1119 FILLER_104_1597
*1120 FILLER_104_1609
*1121 FILLER_104_1621
*1122 FILLER_104_1633
*1123 FILLER_104_1645
*1124 FILLER_104_165
*1125 FILLER_104_1651
*1126 FILLER_104_1653
*1127 FILLER_104_1665
*1128 FILLER_104_1677
*1129 FILLER_104_1689
*1130 FILLER_104_1701
*1131 FILLER_104_1707
*1132 FILLER_104_1709
*1133 FILLER_104_1721
*1134 FILLER_104_1733
*1135 FILLER_104_1745
*1136 FILLER_104_1757
*1137 FILLER_104_1763
*1138 FILLER_104_1765
*1139 FILLER_104_177
*1140 FILLER_104_1777
*1141 FILLER_104_1789
*1142 FILLER_104_1801
*1143 FILLER_104_1813
*1144 FILLER_104_1819
*1145 FILLER_104_1821
*1146 FILLER_104_1833
*1147 FILLER_104_1845
*1148 FILLER_104_1857
*1149 FILLER_104_1869
*1150 FILLER_104_1875
*1151 FILLER_104_1877
*1152 FILLER_104_1889
*1153 FILLER_104_189
*1154 FILLER_104_1901
*1155 FILLER_104_1913
*1156 FILLER_104_1925
*1157 FILLER_104_195
*1158 FILLER_104_197
*1159 FILLER_104_209
*1160 FILLER_104_221
*1161 FILLER_104_233
*1162 FILLER_104_245
*1163 FILLER_104_251
*1164 FILLER_104_253
*1165 FILLER_104_265
*1166 FILLER_104_27
*1167 FILLER_104_277
*1168 FILLER_104_289
*1169 FILLER_104_29
*1170 FILLER_104_3
*1171 FILLER_104_301
*1172 FILLER_104_307
*1173 FILLER_104_309
*1174 FILLER_104_321
*1175 FILLER_104_333
*1176 FILLER_104_345
*1177 FILLER_104_357
*1178 FILLER_104_363
*1179 FILLER_104_365
*1180 FILLER_104_377
*1181 FILLER_104_389
*1182 FILLER_104_401
*1183 FILLER_104_41
*1184 FILLER_104_413
*1185 FILLER_104_419
*1186 FILLER_104_421
*1187 FILLER_104_433
*1188 FILLER_104_445
*1189 FILLER_104_457
*1190 FILLER_104_469
*1191 FILLER_104_475
*1192 FILLER_104_477
*1193 FILLER_104_489
*1194 FILLER_104_501
*1195 FILLER_104_513
*1196 FILLER_104_525
*1197 FILLER_104_53
*1198 FILLER_104_531
*1199 FILLER_104_533
*1200 FILLER_104_545
*1201 FILLER_104_557
*1202 FILLER_104_569
*1203 FILLER_104_581
*1204 FILLER_104_587
*1205 FILLER_104_589
*1206 FILLER_104_601
*1207 FILLER_104_613
*1208 FILLER_104_625
*1209 FILLER_104_637
*1210 FILLER_104_643
*1211 FILLER_104_645
*1212 FILLER_104_65
*1213 FILLER_104_657
*1214 FILLER_104_669
*1215 FILLER_104_681
*1216 FILLER_104_693
*1217 FILLER_104_699
*1218 FILLER_104_701
*1219 FILLER_104_713
*1220 FILLER_104_725
*1221 FILLER_104_737
*1222 FILLER_104_749
*1223 FILLER_104_755
*1224 FILLER_104_757
*1225 FILLER_104_769
*1226 FILLER_104_77
*1227 FILLER_104_781
*1228 FILLER_104_793
*1229 FILLER_104_805
*1230 FILLER_104_811
*1231 FILLER_104_813
*1232 FILLER_104_825
*1233 FILLER_104_83
*1234 FILLER_104_837
*1235 FILLER_104_849
*1236 FILLER_104_85
*1237 FILLER_104_861
*1238 FILLER_104_867
*1239 FILLER_104_869
*1240 FILLER_104_881
*1241 FILLER_104_893
*1242 FILLER_104_905
*1243 FILLER_104_917
*1244 FILLER_104_923
*1245 FILLER_104_925
*1246 FILLER_104_937
*1247 FILLER_104_949
*1248 FILLER_104_961
*1249 FILLER_104_97
*1250 FILLER_104_973
*1251 FILLER_104_979
*1252 FILLER_104_981
*1253 FILLER_104_993
*1254 FILLER_105_1001
*1255 FILLER_105_1007
*1256 FILLER_105_1009
*1257 FILLER_105_1021
*1258 FILLER_105_1033
*1259 FILLER_105_1045
*1260 FILLER_105_105
*1261 FILLER_105_1057
*1262 FILLER_105_1063
*1263 FILLER_105_1065
*1264 FILLER_105_1077
*1265 FILLER_105_1089
*1266 FILLER_105_1101
*1267 FILLER_105_111
*1268 FILLER_105_1113
*1269 FILLER_105_1119
*1270 FILLER_105_1121
*1271 FILLER_105_113
*1272 FILLER_105_1133
*1273 FILLER_105_1145
*1274 FILLER_105_1157
*1275 FILLER_105_1169
*1276 FILLER_105_1175
*1277 FILLER_105_1177
*1278 FILLER_105_1189
*1279 FILLER_105_1201
*1280 FILLER_105_1213
*1281 FILLER_105_1225
*1282 FILLER_105_1231
*1283 FILLER_105_1233
*1284 FILLER_105_1245
*1285 FILLER_105_125
*1286 FILLER_105_1257
*1287 FILLER_105_1269
*1288 FILLER_105_1281
*1289 FILLER_105_1287
*1290 FILLER_105_1289
*1291 FILLER_105_1301
*1292 FILLER_105_1313
*1293 FILLER_105_1325
*1294 FILLER_105_1337
*1295 FILLER_105_1343
*1296 FILLER_105_1345
*1297 FILLER_105_1357
*1298 FILLER_105_1369
*1299 FILLER_105_137
*1300 FILLER_105_1381
*1301 FILLER_105_1393
*1302 FILLER_105_1399
*1303 FILLER_105_1401
*1304 FILLER_105_1413
*1305 FILLER_105_1425
*1306 FILLER_105_1437
*1307 FILLER_105_1449
*1308 FILLER_105_1455
*1309 FILLER_105_1457
*1310 FILLER_105_1469
*1311 FILLER_105_1481
*1312 FILLER_105_149
*1313 FILLER_105_1493
*1314 FILLER_105_15
*1315 FILLER_105_1505
*1316 FILLER_105_1511
*1317 FILLER_105_1513
*1318 FILLER_105_1525
*1319 FILLER_105_1537
*1320 FILLER_105_1549
*1321 FILLER_105_1561
*1322 FILLER_105_1567
*1323 FILLER_105_1569
*1324 FILLER_105_1581
*1325 FILLER_105_1593
*1326 FILLER_105_1605
*1327 FILLER_105_161
*1328 FILLER_105_1617
*1329 FILLER_105_1623
*1330 FILLER_105_1625
*1331 FILLER_105_1637
*1332 FILLER_105_1649
*1333 FILLER_105_1661
*1334 FILLER_105_167
*1335 FILLER_105_1673
*1336 FILLER_105_1679
*1337 FILLER_105_1681
*1338 FILLER_105_169
*1339 FILLER_105_1693
*1340 FILLER_105_1705
*1341 FILLER_105_1717
*1342 FILLER_105_1729
*1343 FILLER_105_1735
*1344 FILLER_105_1737
*1345 FILLER_105_1749
*1346 FILLER_105_1761
*1347 FILLER_105_1773
*1348 FILLER_105_1785
*1349 FILLER_105_1791
*1350 FILLER_105_1793
*1351 FILLER_105_1805
*1352 FILLER_105_181
*1353 FILLER_105_1817
*1354 FILLER_105_1829
*1355 FILLER_105_1841
*1356 FILLER_105_1847
*1357 FILLER_105_1849
*1358 FILLER_105_1861
*1359 FILLER_105_1873
*1360 FILLER_105_1885
*1361 FILLER_105_1897
*1362 FILLER_105_1903
*1363 FILLER_105_1905
*1364 FILLER_105_1917
*1365 FILLER_105_193
*1366 FILLER_105_205
*1367 FILLER_105_217
*1368 FILLER_105_223
*1369 FILLER_105_225
*1370 FILLER_105_237
*1371 FILLER_105_249
*1372 FILLER_105_261
*1373 FILLER_105_27
*1374 FILLER_105_273
*1375 FILLER_105_279
*1376 FILLER_105_281
*1377 FILLER_105_293
*1378 FILLER_105_3
*1379 FILLER_105_305
*1380 FILLER_105_317
*1381 FILLER_105_329
*1382 FILLER_105_335
*1383 FILLER_105_337
*1384 FILLER_105_349
*1385 FILLER_105_361
*1386 FILLER_105_373
*1387 FILLER_105_385
*1388 FILLER_105_39
*1389 FILLER_105_391
*1390 FILLER_105_393
*1391 FILLER_105_405
*1392 FILLER_105_417
*1393 FILLER_105_429
*1394 FILLER_105_441
*1395 FILLER_105_447
*1396 FILLER_105_449
*1397 FILLER_105_461
*1398 FILLER_105_473
*1399 FILLER_105_485
*1400 FILLER_105_497
*1401 FILLER_105_503
*1402 FILLER_105_505
*1403 FILLER_105_51
*1404 FILLER_105_517
*1405 FILLER_105_529
*1406 FILLER_105_541
*1407 FILLER_105_55
*1408 FILLER_105_553
*1409 FILLER_105_559
*1410 FILLER_105_561
*1411 FILLER_105_57
*1412 FILLER_105_573
*1413 FILLER_105_585
*1414 FILLER_105_597
*1415 FILLER_105_609
*1416 FILLER_105_615
*1417 FILLER_105_617
*1418 FILLER_105_629
*1419 FILLER_105_641
*1420 FILLER_105_653
*1421 FILLER_105_665
*1422 FILLER_105_671
*1423 FILLER_105_673
*1424 FILLER_105_685
*1425 FILLER_105_69
*1426 FILLER_105_697
*1427 FILLER_105_709
*1428 FILLER_105_721
*1429 FILLER_105_727
*1430 FILLER_105_729
*1431 FILLER_105_741
*1432 FILLER_105_753
*1433 FILLER_105_765
*1434 FILLER_105_777
*1435 FILLER_105_783
*1436 FILLER_105_785
*1437 FILLER_105_797
*1438 FILLER_105_809
*1439 FILLER_105_81
*1440 FILLER_105_821
*1441 FILLER_105_833
*1442 FILLER_105_839
*1443 FILLER_105_841
*1444 FILLER_105_853
*1445 FILLER_105_865
*1446 FILLER_105_877
*1447 FILLER_105_889
*1448 FILLER_105_895
*1449 FILLER_105_897
*1450 FILLER_105_909
*1451 FILLER_105_921
*1452 FILLER_105_93
*1453 FILLER_105_933
*1454 FILLER_105_945
*1455 FILLER_105_951
*1456 FILLER_105_953
*1457 FILLER_105_965
*1458 FILLER_105_977
*1459 FILLER_105_989
*1460 FILLER_106_1005
*1461 FILLER_106_1017
*1462 FILLER_106_1029