*SPEF "ieee 1481-1999"
*DESIGN "user_project_wrapper"
*DATE "11:11:11 Fri 11 11, 1111"
*VENDOR "OpenRCX"
*PROGRAM "Parallel Extraction"
*VERSION "1.0"
*DESIGN_FLOW "NAME_SCOPE LOCAL" "PIN_CAP NONE"
*DIVIDER /
*DELIMITER :
*BUS_DELIMITER []
*T_UNIT 1 NS
*C_UNIT 1 PF
*R_UNIT 1 OHM
*L_UNIT 1 HENRY

*NAME_MAP
*1 io_in[0]
*2 io_in[10]
*3 io_in[11]
*4 io_in[12]
*5 io_in[13]
*6 io_in[14]
*7 io_in[15]
*8 io_in[16]
*9 io_in[17]
*10 io_in[18]
*11 io_in[19]
*12 io_in[1]
*13 io_in[20]
*14 io_in[21]
*15 io_in[22]
*16 io_in[23]
*17 io_in[24]
*18 io_in[25]
*19 io_in[26]
*20 io_in[27]
*21 io_in[28]
*22 io_in[29]
*23 io_in[2]
*24 io_in[30]
*25 io_in[31]
*26 io_in[32]
*27 io_in[33]
*28 io_in[34]
*29 io_in[35]
*30 io_in[36]
*31 io_in[37]
*32 io_in[3]
*33 io_in[4]
*34 io_in[5]
*35 io_in[6]
*36 io_in[7]
*37 io_in[8]
*38 io_in[9]
*39 io_oeb[0]
*40 io_oeb[10]
*41 io_oeb[11]
*42 io_oeb[12]
*43 io_oeb[13]
*44 io_oeb[14]
*45 io_oeb[15]
*46 io_oeb[16]
*47 io_oeb[17]
*48 io_oeb[18]
*49 io_oeb[19]
*50 io_oeb[1]
*51 io_oeb[20]
*52 io_oeb[21]
*53 io_oeb[22]
*54 io_oeb[23]
*55 io_oeb[24]
*56 io_oeb[25]
*57 io_oeb[26]
*58 io_oeb[27]
*59 io_oeb[28]
*60 io_oeb[29]
*61 io_oeb[2]
*62 io_oeb[30]
*63 io_oeb[31]
*64 io_oeb[32]
*65 io_oeb[33]
*66 io_oeb[34]
*67 io_oeb[35]
*68 io_oeb[36]
*69 io_oeb[37]
*70 io_oeb[3]
*71 io_oeb[4]
*72 io_oeb[5]
*73 io_oeb[6]
*74 io_oeb[7]
*75 io_oeb[8]
*76 io_oeb[9]
*77 io_out[0]
*78 io_out[10]
*79 io_out[11]
*80 io_out[12]
*81 io_out[13]
*82 io_out[14]
*83 io_out[15]
*84 io_out[16]
*85 io_out[17]
*86 io_out[18]
*87 io_out[19]
*88 io_out[1]
*89 io_out[20]
*90 io_out[21]
*91 io_out[22]
*92 io_out[23]
*93 io_out[24]
*94 io_out[25]
*95 io_out[26]
*96 io_out[27]
*97 io_out[28]
*98 io_out[29]
*99 io_out[2]
*100 io_out[30]
*101 io_out[31]
*102 io_out[32]
*103 io_out[33]
*104 io_out[34]
*105 io_out[35]
*106 io_out[36]
*107 io_out[37]
*108 io_out[3]
*109 io_out[4]
*110 io_out[5]
*111 io_out[6]
*112 io_out[7]
*113 io_out[8]
*114 io_out[9]
*115 la_data_in[0]
*116 la_data_in[10]
*117 la_data_in[11]
*118 la_data_in[12]
*119 la_data_in[13]
*120 la_data_in[14]
*121 la_data_in[15]
*122 la_data_in[16]
*123 la_data_in[17]
*124 la_data_in[18]
*125 la_data_in[19]
*126 la_data_in[1]
*127 la_data_in[20]
*128 la_data_in[21]
*129 la_data_in[22]
*130 la_data_in[23]
*131 la_data_in[24]
*132 la_data_in[25]
*133 la_data_in[26]
*134 la_data_in[27]
*135 la_data_in[28]
*136 la_data_in[29]
*137 la_data_in[2]
*138 la_data_in[30]
*139 la_data_in[31]
*140 la_data_in[32]
*141 la_data_in[33]
*142 la_data_in[34]
*143 la_data_in[35]
*144 la_data_in[36]
*145 la_data_in[37]
*146 la_data_in[38]
*147 la_data_in[39]
*148 la_data_in[3]
*149 la_data_in[40]
*150 la_data_in[41]
*151 la_data_in[42]
*152 la_data_in[43]
*153 la_data_in[44]
*154 la_data_in[45]
*155 la_data_in[46]
*156 la_data_in[47]
*157 la_data_in[48]
*158 la_data_in[49]
*159 la_data_in[4]
*160 la_data_in[50]
*161 la_data_in[51]
*162 la_data_in[52]
*163 la_data_in[53]
*164 la_data_in[54]
*165 la_data_in[55]
*166 la_data_in[56]
*167 la_data_in[57]
*168 la_data_in[58]
*169 la_data_in[59]
*170 la_data_in[5]
*171 la_data_in[60]
*172 la_data_in[61]
*173 la_data_in[62]
*174 la_data_in[63]
*175 la_data_in[6]
*176 la_data_in[7]
*177 la_data_in[8]
*178 la_data_in[9]
*179 la_data_out[0]
*180 la_data_out[10]
*181 la_data_out[11]
*182 la_data_out[12]
*183 la_data_out[13]
*184 la_data_out[14]
*185 la_data_out[15]
*186 la_data_out[16]
*187 la_data_out[17]
*188 la_data_out[18]
*189 la_data_out[19]
*190 la_data_out[1]
*191 la_data_out[20]
*192 la_data_out[21]
*193 la_data_out[22]
*194 la_data_out[23]
*195 la_data_out[24]
*196 la_data_out[25]
*197 la_data_out[26]
*198 la_data_out[27]
*199 la_data_out[28]
*200 la_data_out[29]
*201 la_data_out[2]
*202 la_data_out[30]
*203 la_data_out[31]
*204 la_data_out[32]
*205 la_data_out[33]
*206 la_data_out[34]
*207 la_data_out[35]
*208 la_data_out[36]
*209 la_data_out[37]
*210 la_data_out[38]
*211 la_data_out[39]
*212 la_data_out[3]
*213 la_data_out[40]
*214 la_data_out[41]
*215 la_data_out[42]
*216 la_data_out[43]
*217 la_data_out[44]
*218 la_data_out[45]
*219 la_data_out[46]
*220 la_data_out[47]
*221 la_data_out[48]
*222 la_data_out[49]
*223 la_data_out[4]
*224 la_data_out[50]
*225 la_data_out[51]
*226 la_data_out[52]
*227 la_data_out[53]
*228 la_data_out[54]
*229 la_data_out[55]
*230 la_data_out[56]
*231 la_data_out[57]
*232 la_data_out[58]
*233 la_data_out[59]
*234 la_data_out[5]
*235 la_data_out[60]
*236 la_data_out[61]
*237 la_data_out[62]
*238 la_data_out[63]
*239 la_data_out[6]
*240 la_data_out[7]
*241 la_data_out[8]
*242 la_data_out[9]
*243 la_oenb[0]
*244 la_oenb[10]
*245 la_oenb[11]
*246 la_oenb[12]
*247 la_oenb[13]
*248 la_oenb[14]
*249 la_oenb[15]
*250 la_oenb[16]
*251 la_oenb[17]
*252 la_oenb[18]
*253 la_oenb[19]
*254 la_oenb[1]
*255 la_oenb[20]
*256 la_oenb[21]
*257 la_oenb[22]
*258 la_oenb[23]
*259 la_oenb[24]
*260 la_oenb[25]
*261 la_oenb[26]
*262 la_oenb[27]
*263 la_oenb[28]
*264 la_oenb[29]
*265 la_oenb[2]
*266 la_oenb[30]
*267 la_oenb[31]
*268 la_oenb[32]
*269 la_oenb[33]
*270 la_oenb[34]
*271 la_oenb[35]
*272 la_oenb[36]
*273 la_oenb[37]
*274 la_oenb[38]
*275 la_oenb[39]
*276 la_oenb[3]
*277 la_oenb[40]
*278 la_oenb[41]
*279 la_oenb[42]
*280 la_oenb[43]
*281 la_oenb[44]
*282 la_oenb[45]
*283 la_oenb[46]
*284 la_oenb[47]
*285 la_oenb[48]
*286 la_oenb[49]
*287 la_oenb[4]
*288 la_oenb[50]
*289 la_oenb[51]
*290 la_oenb[52]
*291 la_oenb[53]
*292 la_oenb[54]
*293 la_oenb[55]
*294 la_oenb[56]
*295 la_oenb[57]
*296 la_oenb[58]
*297 la_oenb[59]
*298 la_oenb[5]
*299 la_oenb[60]
*300 la_oenb[61]
*301 la_oenb[62]
*302 la_oenb[63]
*303 la_oenb[6]
*304 la_oenb[7]
*305 la_oenb[8]
*306 la_oenb[9]
*307 user_clock2
*308 user_irq[0]
*309 user_irq[1]
*310 user_irq[2]
*313 wb_clk_i
*314 wb_rst_i
*315 wbs_ack_o
*316 wbs_adr_i[0]
*317 wbs_adr_i[10]
*318 wbs_adr_i[11]
*319 wbs_adr_i[12]
*320 wbs_adr_i[13]
*321 wbs_adr_i[14]
*322 wbs_adr_i[15]
*323 wbs_adr_i[16]
*324 wbs_adr_i[17]
*325 wbs_adr_i[18]
*326 wbs_adr_i[19]
*327 wbs_adr_i[1]
*328 wbs_adr_i[20]
*329 wbs_adr_i[21]
*330 wbs_adr_i[22]
*331 wbs_adr_i[23]
*332 wbs_adr_i[24]
*333 wbs_adr_i[25]
*334 wbs_adr_i[26]
*335 wbs_adr_i[27]
*336 wbs_adr_i[28]
*337 wbs_adr_i[29]
*338 wbs_adr_i[2]
*339 wbs_adr_i[30]
*340 wbs_adr_i[31]
*341 wbs_adr_i[3]
*342 wbs_adr_i[4]
*343 wbs_adr_i[5]
*344 wbs_adr_i[6]
*345 wbs_adr_i[7]
*346 wbs_adr_i[8]
*347 wbs_adr_i[9]
*348 wbs_cyc_i
*349 wbs_dat_i[0]
*350 wbs_dat_i[10]
*351 wbs_dat_i[11]
*352 wbs_dat_i[12]
*353 wbs_dat_i[13]
*354 wbs_dat_i[14]
*355 wbs_dat_i[15]
*356 wbs_dat_i[16]
*357 wbs_dat_i[17]
*358 wbs_dat_i[18]
*359 wbs_dat_i[19]
*360 wbs_dat_i[1]
*361 wbs_dat_i[20]
*362 wbs_dat_i[21]
*363 wbs_dat_i[22]
*364 wbs_dat_i[23]
*365 wbs_dat_i[24]
*366 wbs_dat_i[25]
*367 wbs_dat_i[26]
*368 wbs_dat_i[27]
*369 wbs_dat_i[28]
*370 wbs_dat_i[29]
*371 wbs_dat_i[2]
*372 wbs_dat_i[30]
*373 wbs_dat_i[31]
*374 wbs_dat_i[3]
*375 wbs_dat_i[4]
*376 wbs_dat_i[5]
*377 wbs_dat_i[6]
*378 wbs_dat_i[7]
*379 wbs_dat_i[8]
*380 wbs_dat_i[9]
*381 wbs_dat_o[0]
*382 wbs_dat_o[10]
*383 wbs_dat_o[11]
*384 wbs_dat_o[12]
*385 wbs_dat_o[13]
*386 wbs_dat_o[14]
*387 wbs_dat_o[15]
*388 wbs_dat_o[16]
*389 wbs_dat_o[17]
*390 wbs_dat_o[18]
*391 wbs_dat_o[19]
*392 wbs_dat_o[1]
*393 wbs_dat_o[20]
*394 wbs_dat_o[21]
*395 wbs_dat_o[22]
*396 wbs_dat_o[23]
*397 wbs_dat_o[24]
*398 wbs_dat_o[25]
*399 wbs_dat_o[26]
*400 wbs_dat_o[27]
*401 wbs_dat_o[28]
*402 wbs_dat_o[29]
*403 wbs_dat_o[2]
*404 wbs_dat_o[30]
*405 wbs_dat_o[31]
*406 wbs_dat_o[3]
*407 wbs_dat_o[4]
*408 wbs_dat_o[5]
*409 wbs_dat_o[6]
*410 wbs_dat_o[7]
*411 wbs_dat_o[8]
*412 wbs_dat_o[9]
*413 wbs_sel_i[0]
*414 wbs_sel_i[1]
*415 wbs_sel_i[2]
*416 wbs_sel_i[3]
*417 wbs_stb_i
*418 wbs_we_i
*419 mprj

*PORTS
io_in[0] I
io_in[10] I
io_in[11] I
io_in[12] I
io_in[13] I
io_in[14] I
io_in[15] I
io_in[16] I
io_in[17] I
io_in[18] I
io_in[19] I
io_in[1] I
io_in[20] I
io_in[21] I
io_in[22] I
io_in[23] I
io_in[24] I
io_in[25] I
io_in[26] I
io_in[27] I
io_in[28] I
io_in[29] I
io_in[2] I
io_in[30] I
io_in[31] I
io_in[32] I
io_in[33] I
io_in[34] I
io_in[35] I
io_in[36] I
io_in[37] I
io_in[3] I
io_in[4] I
io_in[5] I
io_in[6] I
io_in[7] I
io_in[8] I
io_in[9] I
io_oeb[0] O
io_oeb[10] O
io_oeb[11] O
io_oeb[12] O
io_oeb[13] O
io_oeb[14] O
io_oeb[15] O
io_oeb[16] O
io_oeb[17] O
io_oeb[18] O
io_oeb[19] O
io_oeb[1] O
io_oeb[20] O
io_oeb[21] O
io_oeb[22] O
io_oeb[23] O
io_oeb[24] O
io_oeb[25] O
io_oeb[26] O
io_oeb[27] O
io_oeb[28] O
io_oeb[29] O
io_oeb[2] O
io_oeb[30] O
io_oeb[31] O
io_oeb[32] O
io_oeb[33] O
io_oeb[34] O
io_oeb[35] O
io_oeb[36] O
io_oeb[37] O
io_oeb[3] O
io_oeb[4] O
io_oeb[5] O
io_oeb[6] O
io_oeb[7] O
io_oeb[8] O
io_oeb[9] O
io_out[0] O
io_out[10] O
io_out[11] O
io_out[12] O
io_out[13] O
io_out[14] O
io_out[15] O
io_out[16] O
io_out[17] O
io_out[18] O
io_out[19] O
io_out[1] O
io_out[20] O
io_out[21] O
io_out[22] O
io_out[23] O
io_out[24] O
io_out[25] O
io_out[26] O
io_out[27] O
io_out[28] O
io_out[29] O
io_out[2] O
io_out[30] O
io_out[31] O
io_out[32] O
io_out[33] O
io_out[34] O
io_out[35] O
io_out[36] O
io_out[37] O
io_out[3] O
io_out[4] O
io_out[5] O
io_out[6] O
io_out[7] O
io_out[8] O
io_out[9] O
la_data_in[0] I
la_data_in[10] I
la_data_in[11] I
la_data_in[12] I
la_data_in[13] I
la_data_in[14] I
la_data_in[15] I
la_data_in[16] I
la_data_in[17] I
la_data_in[18] I
la_data_in[19] I
la_data_in[1] I
la_data_in[20] I
la_data_in[21] I
la_data_in[22] I
la_data_in[23] I
la_data_in[24] I
la_data_in[25] I
la_data_in[26] I
la_data_in[27] I
la_data_in[28] I
la_data_in[29] I
la_data_in[2] I
la_data_in[30] I
la_data_in[31] I
la_data_in[32] I
la_data_in[33] I
la_data_in[34] I
la_data_in[35] I
la_data_in[36] I
la_data_in[37] I
la_data_in[38] I
la_data_in[39] I
la_data_in[3] I
la_data_in[40] I
la_data_in[41] I
la_data_in[42] I
la_data_in[43] I
la_data_in[44] I
la_data_in[45] I
la_data_in[46] I
la_data_in[47] I
la_data_in[48] I
la_data_in[49] I
la_data_in[4] I
la_data_in[50] I
la_data_in[51] I
la_data_in[52] I
la_data_in[53] I
la_data_in[54] I
la_data_in[55] I
la_data_in[56] I
la_data_in[57] I
la_data_in[58] I
la_data_in[59] I
la_data_in[5] I
la_data_in[60] I
la_data_in[61] I
la_data_in[62] I
la_data_in[63] I
la_data_in[6] I
la_data_in[7] I
la_data_in[8] I
la_data_in[9] I
la_data_out[0] O
la_data_out[10] O
la_data_out[11] O
la_data_out[12] O
la_data_out[13] O
la_data_out[14] O
la_data_out[15] O
la_data_out[16] O
la_data_out[17] O
la_data_out[18] O
la_data_out[19] O
la_data_out[1] O
la_data_out[20] O
la_data_out[21] O
la_data_out[22] O
la_data_out[23] O
la_data_out[24] O
la_data_out[25] O
la_data_out[26] O
la_data_out[27] O
la_data_out[28] O
la_data_out[29] O
la_data_out[2] O
la_data_out[30] O
la_data_out[31] O
la_data_out[32] O
la_data_out[33] O
la_data_out[34] O
la_data_out[35] O
la_data_out[36] O
la_data_out[37] O
la_data_out[38] O
la_data_out[39] O
la_data_out[3] O
la_data_out[40] O
la_data_out[41] O
la_data_out[42] O
la_data_out[43] O
la_data_out[44] O
la_data_out[45] O
la_data_out[46] O
la_data_out[47] O
la_data_out[48] O
la_data_out[49] O
la_data_out[4] O
la_data_out[50] O
la_data_out[51] O
la_data_out[52] O
la_data_out[53] O
la_data_out[54] O
la_data_out[55] O
la_data_out[56] O
la_data_out[57] O
la_data_out[58] O
la_data_out[59] O
la_data_out[5] O
la_data_out[60] O
la_data_out[61] O
la_data_out[62] O
la_data_out[63] O
la_data_out[6] O
la_data_out[7] O
la_data_out[8] O
la_data_out[9] O
la_oenb[0] I
la_oenb[10] I
la_oenb[11] I
la_oenb[12] I
la_oenb[13] I
la_oenb[14] I
la_oenb[15] I
la_oenb[16] I
la_oenb[17] I
la_oenb[18] I
la_oenb[19] I
la_oenb[1] I
la_oenb[20] I
la_oenb[21] I
la_oenb[22] I
la_oenb[23] I
la_oenb[24] I
la_oenb[25] I
la_oenb[26] I
la_oenb[27] I
la_oenb[28] I
la_oenb[29] I
la_oenb[2] I
la_oenb[30] I
la_oenb[31] I
la_oenb[32] I
la_oenb[33] I
la_oenb[34] I
la_oenb[35] I
la_oenb[36] I
la_oenb[37] I
la_oenb[38] I
la_oenb[39] I
la_oenb[3] I
la_oenb[40] I
la_oenb[41] I
la_oenb[42] I
la_oenb[43] I
la_oenb[44] I
la_oenb[45] I
la_oenb[46] I
la_oenb[47] I
la_oenb[48] I
la_oenb[49] I
la_oenb[4] I
la_oenb[50] I
la_oenb[51] I
la_oenb[52] I
la_oenb[53] I
la_oenb[54] I
la_oenb[55] I
la_oenb[56] I
la_oenb[57] I
la_oenb[58] I
la_oenb[59] I
la_oenb[5] I
la_oenb[60] I
la_oenb[61] I
la_oenb[62] I
la_oenb[63] I
la_oenb[6] I
la_oenb[7] I
la_oenb[8] I
la_oenb[9] I
user_clock2 I
user_irq[0] O
user_irq[1] O
user_irq[2] O
wb_clk_i I
wb_rst_i I
wbs_ack_o O
wbs_adr_i[0] I
wbs_adr_i[10] I
wbs_adr_i[11] I
wbs_adr_i[12] I
wbs_adr_i[13] I
wbs_adr_i[14] I
wbs_adr_i[15] I
wbs_adr_i[16] I
wbs_adr_i[17] I
wbs_adr_i[18] I
wbs_adr_i[19] I
wbs_adr_i[1] I
wbs_adr_i[20] I
wbs_adr_i[21] I
wbs_adr_i[22] I
wbs_adr_i[23] I
wbs_adr_i[24] I
wbs_adr_i[25] I
wbs_adr_i[26] I
wbs_adr_i[27] I
wbs_adr_i[28] I
wbs_adr_i[29] I
wbs_adr_i[2] I
wbs_adr_i[30] I
wbs_adr_i[31] I
wbs_adr_i[3] I
wbs_adr_i[4] I
wbs_adr_i[5] I
wbs_adr_i[6] I
wbs_adr_i[7] I
wbs_adr_i[8] I
wbs_adr_i[9] I
wbs_cyc_i I
wbs_dat_i[0] I
wbs_dat_i[10] I
wbs_dat_i[11] I
wbs_dat_i[12] I
wbs_dat_i[13] I
wbs_dat_i[14] I
wbs_dat_i[15] I
wbs_dat_i[16] I
wbs_dat_i[17] I
wbs_dat_i[18] I
wbs_dat_i[19] I
wbs_dat_i[1] I
wbs_dat_i[20] I
wbs_dat_i[21] I
wbs_dat_i[22] I
wbs_dat_i[23] I
wbs_dat_i[24] I
wbs_dat_i[25] I
wbs_dat_i[26] I
wbs_dat_i[27] I
wbs_dat_i[28] I
wbs_dat_i[29] I
wbs_dat_i[2] I
wbs_dat_i[30] I
wbs_dat_i[31] I
wbs_dat_i[3] I
wbs_dat_i[4] I
wbs_dat_i[5] I
wbs_dat_i[6] I
wbs_dat_i[7] I
wbs_dat_i[8] I
wbs_dat_i[9] I
wbs_dat_o[0] O
wbs_dat_o[10] O
wbs_dat_o[11] O
wbs_dat_o[12] O
wbs_dat_o[13] O
wbs_dat_o[14] O
wbs_dat_o[15] O
wbs_dat_o[16] O
wbs_dat_o[17] O
wbs_dat_o[18] O
wbs_dat_o[19] O
wbs_dat_o[1] O
wbs_dat_o[20] O
wbs_dat_o[21] O
wbs_dat_o[22] O
wbs_dat_o[23] O
wbs_dat_o[24] O
wbs_dat_o[25] O
wbs_dat_o[26] O
wbs_dat_o[27] O
wbs_dat_o[28] O
wbs_dat_o[29] O
wbs_dat_o[2] O
wbs_dat_o[30] O
wbs_dat_o[31] O
wbs_dat_o[3] O
wbs_dat_o[4] O
wbs_dat_o[5] O
wbs_dat_o[6] O
wbs_dat_o[7] O
wbs_dat_o[8] O
wbs_dat_o[9] O
wbs_sel_i[0] I
wbs_sel_i[1] I
wbs_sel_i[2] I
wbs_sel_i[3] I
wbs_stb_i I
wbs_we_i I

*D_NET *1 0.410701
*CONN
*P io_in[0] I
*I *419:io_in[0] I *D tiny_user_project
*CAP
1 io_in[0] 0.000637361
2 *419:io_in[0] 0.000185419
3 *1:14 0.00981953
4 *1:13 0.00963411
5 *1:11 0.0731376
6 *1:10 0.0731376
7 *1:8 0.00497982
8 *1:7 0.00561718
9 *1:14 *37:16 0.0324678
10 *1:14 *138:11 0.0961758
11 *1:14 *263:19 0.0181468
12 *1:14 *284:15 0.00230926
13 *1:14 *355:13 0.0387281
14 *1:14 *383:16 0
15 *1:14 *391:11 0.0457249
*RES
1 io_in[0] *1:7 11.025 
2 *1:7 *1:8 49.77 
3 *1:8 *1:10 4.5 
4 *1:10 *1:11 765.63 
5 *1:11 *1:13 4.5 
6 *1:13 *1:14 268.47 
7 *1:14 *419:io_in[0] 15.48 
*END

*D_NET *2 0.2683
*CONN
*P io_in[10] I
*I *419:io_in[10] I *D tiny_user_project
*CAP
1 io_in[10] 0.000680091
2 *419:io_in[10] 0.000698277
3 *2:14 0.00411381
4 *2:13 0.00341553
5 *2:11 0.0708537
6 *2:10 0.0708537
7 *2:8 0.0212576
8 *2:7 0.0219377
9 *419:io_in[10] *220:10 0.000273736
10 *2:14 *419:la_oenb[12] 0.00249595
11 *2:14 *6:12 0.00338794
12 *2:14 *357:11 0.0175739
13 *2:14 *368:11 0.0507577
*RES
1 io_in[10] *2:7 11.025 
2 *2:7 *2:8 212.13 
3 *2:8 *2:10 4.5 
4 *2:10 *2:11 771.57 
5 *2:11 *2:13 4.5 
6 *2:13 *2:14 110.25 
7 *2:14 *419:io_in[10] 21.42 
*END

*D_NET *3 0.530484
*CONN
*P io_in[11] I
*I *419:io_in[11] I *D tiny_user_project
*CAP
1 io_in[11] 0.000280649
2 *419:io_in[11] 0.00142817
3 *3:16 0.0254464
4 *3:15 0.0240183
5 *3:13 0.0718117
6 *3:11 0.0720923
7 *3:16 *73:11 0.0607006
8 *3:16 *81:11 0.220891
9 *3:16 *220:11 0.051617
10 *3:16 *287:17 0.00219725
*RES
1 io_in[11] *3:11 2.655 
2 *3:11 *3:13 783.09 
3 *3:13 *3:15 4.5 
4 *3:15 *3:16 458.91 
5 *3:16 *419:io_in[11] 27.63 
*END

*D_NET *4 0.394251
*CONN
*P io_in[12] I
*I *419:io_in[12] I *D tiny_user_project
*CAP
1 io_in[12] 0.000215438
2 *419:io_in[12] 0.00161196
3 *4:16 0.0374742
4 *4:15 0.0358623
5 *4:13 0.0720061
6 *4:11 0.0722216
7 *4:16 *75:11 0.174859
*RES
1 io_in[12] *4:11 2.115 
2 *4:11 *4:13 785.61 
3 *4:13 *4:15 4.5 
4 *4:15 *4:16 469.71 
5 *4:16 *419:io_in[12] 28.98 
*END

*D_NET *5 0.340441
*CONN
*P io_in[13] I
*I *419:io_in[13] I *D tiny_user_project
*CAP
1 io_in[13] 0.000145659
2 *419:io_in[13] 0.0021229
3 *5:16 0.0543148
4 *5:15 0.0521919
5 *5:13 0.072212
6 *5:11 0.0723576
7 *419:io_in[13] *419:la_data_in[32] 0.000187842
8 *5:16 *143:13 0.0242434
9 *5:16 *185:13 0.0626646
*RES
1 io_in[13] *5:11 1.575 
2 *5:11 *5:13 788.31 
3 *5:13 *5:15 4.5 
4 *5:15 *5:16 575.19 
5 *5:16 *419:io_in[13] 32.49 
*END

*D_NET *6 0.310736
*CONN
*P io_in[14] I
*I *419:io_in[14] I *D tiny_user_project
*CAP
1 io_in[14] 0.00397136
2 *419:io_in[14] 0.000489161
3 *6:12 0.0585692
4 *6:11 0.05808
5 *6:9 0.0672694
6 *6:7 0.0712407
7 *419:io_in[14] *103:10 0.00151272
8 *6:12 *419:la_oenb[12] 0.0155281
9 *6:12 *359:23 0
10 *6:12 *368:11 0.0306879
11 *2:14 *6:12 0.00338794
*RES
1 io_in[14] *6:7 43.425 
2 *6:7 *6:9 734.58 
3 *6:9 *6:11 4.5 
4 *6:11 *6:12 651.15 
5 *6:12 *419:io_in[14] 20.88 
*END

*D_NET *7 0.464587
*CONN
*P io_in[15] I
*I *419:io_in[15] I *D tiny_user_project
*CAP
1 io_in[15] 0.000671366
2 *419:io_in[15] 0.00120294
3 *7:11 0.0555902
4 *7:10 0.0543873
5 *7:8 0.0443943
6 *7:7 0.0450657
7 *419:io_in[15] *108:9 1.81328e-05
8 *419:io_in[15] *111:16 0.00466273
9 *419:io_in[15] *207:12 0.00257963
10 *419:io_in[15] *349:22 0.00012434
11 *7:8 *15:8 0.062605
12 *7:8 *46:19 0.193286
*RES
1 io_in[15] *7:7 11.025 
2 *7:7 *7:8 649.71 
3 *7:8 *7:10 4.5 
4 *7:10 *7:11 541.53 
5 *7:11 *419:io_in[15] 36.27 
*END

*D_NET *8 0.233116
*CONN
*P io_in[16] I
*I *419:io_in[16] I *D tiny_user_project
*CAP
1 io_in[16] 0.000164983
2 *419:io_in[16] 0.000924214
3 *8:19 0.00865272
4 *8:18 0.00772851
5 *8:16 0.0416224
6 *8:15 0.0416224
7 *8:13 0.061299
8 *8:11 0.061464
9 *8:16 *419:la_data_in[23] 0
10 *8:16 *110:19 0
11 *8:19 *31:16 0.00584144
12 *8:19 *209:10 0
13 *8:19 *234:14 0
14 *8:19 *243:15 0.00290001
15 *8:19 *254:11 0
16 *8:19 *331:19 0.000896086
*RES
1 io_in[16] *8:11 1.935 
2 *8:11 *8:13 611.37 
3 *8:13 *8:15 4.5 
4 *8:15 *8:16 444.33 
5 *8:16 *8:18 4.5 
6 *8:18 *8:19 111.87 
7 *8:19 *419:io_in[16] 12.105 
*END

*D_NET *9 0.180623
*CONN
*P io_in[17] I
*I *419:io_in[17] I *D tiny_user_project
*CAP
1 io_in[17] 0.000291323
2 *419:io_in[17] 0.00112224
3 *9:16 0.0322191
4 *9:15 0.0310968
5 *9:13 0.0567537
6 *9:11 0.057045
7 *419:io_in[17] *419:la_data_in[10] 0.000306186
8 *419:io_in[17] *254:11 0.00124797
9 *9:16 *419:wbs_adr_i[29] 0.000301524
10 *9:16 *76:7 0.000239354
*RES
1 io_in[17] *9:11 3.015 
2 *9:11 *9:13 565.47 
3 *9:13 *9:15 4.5 
4 *9:15 *9:16 335.07 
5 *9:16 *419:io_in[17] 23.355 
*END

*D_NET *10 0.17199
*CONN
*P io_in[18] I
*I *419:io_in[18] I *D tiny_user_project
*CAP
1 io_in[18] 0.000104982
2 *419:io_in[18] 6.16522e-05
3 *10:19 0.0221678
4 *10:18 0.0221062
5 *10:16 0.0282969
6 *10:15 0.0282969
7 *10:13 0.0339245
8 *10:11 0.0340295
9 *419:io_in[18] *419:wbs_adr_i[0] 0.000145063
10 *419:io_in[18] *108:9 0.000199461
11 *419:io_in[18] *349:22 0.00136774
12 *10:19 *419:wbs_adr_i[0] 0.00128889
*RES
1 io_in[18] *10:11 1.395 
2 *10:11 *10:13 338.67 
3 *10:13 *10:15 4.5 
4 *10:15 *10:16 307.53 
5 *10:16 *10:18 4.5 
6 *10:18 *10:19 220.05 
7 *10:19 *419:io_in[18] 11.61 
*END

*D_NET *11 0.181257
*CONN
*P io_in[19] I
*I *419:io_in[19] I *D tiny_user_project
*CAP
1 io_in[19] 0.00163067
2 *419:io_in[19] 0.0126051
3 *11:13 0.0126051
4 *11:11 0.0763925
5 *11:10 0.0780232
6 *11:11 *188:14 0
*RES
1 io_in[19] *11:10 25.515 
2 *11:10 *11:11 758.07 
3 *11:11 *11:13 4.5 
4 *11:13 *419:io_in[19] 126.405 
*END

*D_NET *12 0.690833
*CONN
*P io_in[1] I
*I *419:io_in[1] I *D tiny_user_project
*CAP
1 io_in[1] 0.000280649
2 *419:io_in[1] 0.000473958
3 *12:19 0.00499843
4 *12:18 0.00452447
5 *12:16 0.0343174
6 *12:15 0.0343174
7 *12:13 0.0332111
8 *12:11 0.0334918
9 *419:io_in[1] *419:la_data_in[4] 1.39882e-05
10 *419:io_in[1] *419:la_oenb[37] 0.00124983
11 *419:io_in[1] *419:wb_rst_i 0.000797884
12 *419:io_in[1] *419:wbs_adr_i[24] 0
13 *419:io_in[1] *349:22 0.00012434
14 *12:19 *50:13 0.261921
15 *12:19 *124:14 0.00433115
16 *12:19 *139:16 0.178116
17 *12:19 *316:14 0.00696297
18 *12:19 *342:14 0.0917
*RES
1 io_in[1] *12:11 2.655 
2 *12:11 *12:13 349.47 
3 *12:13 *12:15 4.5 
4 *12:15 *12:16 338.13 
5 *12:16 *12:18 4.5 
6 *12:18 *12:19 409.41 
7 *12:19 *419:io_in[1] 20.34 
*END

*D_NET *13 0.126903
*CONN
*P io_in[20] I
*I *419:io_in[20] I *D tiny_user_project
*CAP
1 io_in[20] 0.00148063
2 *419:io_in[20] 0.000525014
3 *13:11 0.0549631
4 *13:10 0.054438
5 *13:8 0.00588073
6 *13:7 0.00736135
7 *419:io_in[20] *64:28 0.00192726
8 *419:io_in[20] *108:9 1.81328e-05
9 *419:io_in[20] *198:17 0
10 *419:io_in[20] *349:22 0.00012434
11 *13:11 *36:27 0
12 *13:11 *235:16 0.000184127
*RES
1 io_in[20] *13:7 19.125 
2 *13:7 *13:8 63.81 
3 *13:8 *13:10 4.5 
4 *13:10 *13:11 541.35 
5 *13:11 *419:io_in[20] 24.39 
*END

*D_NET *14 0.178542
*CONN
*P io_in[21] I
*I *419:io_in[21] I *D tiny_user_project
*CAP
1 io_in[21] 0.0020307
2 *419:io_in[21] 0.000196157
3 *14:17 0.0193202
4 *14:16 0.0192523
5 *14:11 0.0551843
6 *14:10 0.0570867
7 *419:io_in[21] *419:la_data_in[36] 0
8 *14:10 *15:8 0.0184644
9 *14:11 *72:12 0.000773334
10 *14:16 *64:28 0.000223811
11 *14:16 *133:22 0.00478707
12 *14:16 *257:14 0.00122263
*RES
1 io_in[21] *14:10 41.895 
2 *14:10 *14:11 549.09 
3 *14:11 *14:16 15.93 
4 *14:16 *14:17 222.93 
5 *14:17 *419:io_in[21] 19.7961 
*END

*D_NET *15 0.263228
*CONN
*P io_in[22] I
*I *419:io_in[22] I *D tiny_user_project
*CAP
1 io_in[22] 0.000653512
2 *419:io_in[22] 0.000118515
3 *15:11 0.0555478
4 *15:10 0.0554293
5 *15:8 0.00963081
6 *15:7 0.0102843
7 *15:8 *90:14 0.0491763
8 *15:11 *419:la_oenb[2] 0.000438581
9 *15:11 *179:20 0.000879719
10 *7:8 *15:8 0.062605
11 *14:10 *15:8 0.0184644
*RES
1 io_in[22] *15:7 10.845 
2 *15:7 *15:8 189.27 
3 *15:8 *15:10 4.5 
4 *15:10 *15:11 552.87 
5 *15:11 *419:io_in[22] 1.125 
*END

*D_NET *16 0.20177
*CONN
*P io_in[23] I
*I *419:io_in[23] I *D tiny_user_project
*CAP
1 io_in[23] 0.000104982
2 *419:io_in[23] 0.000687312
3 *16:19 0.00392236
4 *16:18 0.00323505
5 *16:16 0.0256278
6 *16:15 0.0256278
7 *16:13 0.0535858
8 *16:11 0.0536908
9 *16:13 *21:16 0
10 *16:16 *219:13 0
11 *16:16 *261:14 0.00597141
12 *16:19 *91:8 0.00249595
13 *16:19 *126:11 0.0268212
*RES
1 io_in[23] *16:11 1.395 
2 *16:11 *16:13 535.77 
3 *16:13 *16:15 4.5 
4 *16:15 *16:16 302.85 
5 *16:16 *16:18 4.5 
6 *16:18 *16:19 50.31 
7 *16:19 *419:io_in[23] 11.205 
*END

*D_NET *17 0.399252
*CONN
*P io_in[24] I
*I *419:io_in[24] I *D tiny_user_project
*CAP
1 io_in[24] 0.0107503
2 *419:io_in[24] 0.000189115
3 *17:11 0.00695694
4 *17:10 0.00676782
5 *17:8 0.0766156
6 *17:7 0.0766156
7 *17:5 0.0107503
8 *17:8 *378:9 0
9 *17:11 *65:11 0.169287
10 *17:11 *177:14 0.00126826
11 *17:11 *179:25 0.00976066
12 *17:11 *326:20 0.00258393
13 *17:11 *333:20 0.0232305
14 *17:11 *337:16 0.00447615
*RES
1 io_in[24] *17:5 116.865 
2 *17:5 *17:7 4.5 
3 *17:7 *17:8 764.73 
4 *17:8 *17:10 4.5 
5 *17:10 *17:11 245.07 
6 *17:11 *419:io_in[24] 15.1161 
*END

*D_NET *18 0.285777
*CONN
*P io_in[25] I
*I *419:io_in[25] I *D tiny_user_project
*CAP
1 io_in[25] 0.000237175
2 *419:io_in[25] 0.000692546
3 *18:19 0.00839458
4 *18:18 0.00770203
5 *18:16 0.0700917
6 *18:15 0.0700917
7 *18:13 0.00579883
8 *18:11 0.00603601
9 *419:io_in[25] *419:la_oenb[16] 0
10 *419:io_in[25] *419:wbs_dat_i[1] 2.07143e-05
11 *419:io_in[25] *85:16 8.89948e-05
12 *419:io_in[25] *250:19 0
13 *18:19 *419:wbs_adr_i[12] 0.00254896
14 *18:19 *419:wbs_dat_i[13] 0.00142991
15 *18:19 *419:wbs_dat_i[1] 0.000683868
16 *18:19 *26:11 0.108113
17 *18:19 *70:14 0.00167158
18 *18:19 *376:14 0
19 *18:19 *383:15 0.00217594
*RES
1 io_in[25] *18:11 2.295 
2 *18:11 *18:13 62.91 
3 *18:13 *18:15 4.5 
4 *18:15 *18:16 699.57 
5 *18:16 *18:18 4.5 
6 *18:18 *18:19 156.51 
7 *18:19 *419:io_in[25] 20.1561 
*END

*D_NET *19 0.130627
*CONN
*P io_in[26] I
*I *419:io_in[26] I *D tiny_user_project
*CAP
1 io_in[26] 0.00010158
2 *419:io_in[26] 0.000228236
3 *19:19 0.0115805
4 *19:18 0.0113522
5 *19:16 0.0456945
6 *19:15 0.0456945
7 *19:13 0.007843
8 *19:11 0.00794458
9 *419:io_in[26] *419:wbs_stb_i 0.000187842
10 *19:19 *348:16 0
*RES
1 io_in[26] *19:11 1.215 
2 *19:11 *19:13 84.51 
3 *19:13 *19:15 4.5 
4 *19:15 *19:16 456.39 
5 *19:16 *19:18 4.5 
6 *19:18 *19:19 107.73 
7 *19:19 *419:io_in[26] 11.7 
*END

*D_NET *20 0.124576
*CONN
*P io_in[27] I
*I *419:io_in[27] I *D tiny_user_project
*CAP
1 io_in[27] 0.000310538
2 *419:io_in[27] 9.00844e-05
3 *20:19 0.00489976
4 *20:16 0.0465396
5 *20:15 0.0417299
6 *20:13 0.0153476
7 *20:11 0.0156582
8 *20:16 *111:13 0
9 *20:16 *394:13 0
*RES
1 io_in[27] *20:11 2.835 
2 *20:11 *20:13 149.31 
3 *20:13 *20:15 4.5 
4 *20:15 *20:16 415.71 
5 *20:16 *20:19 47.43 
6 *20:19 *419:io_in[27] 9.81 
*END

*D_NET *21 0.140098
*CONN
*P io_in[28] I
*I *419:io_in[28] I *D tiny_user_project
*CAP
1 io_in[28] 0.000167681
2 *419:io_in[28] 0.000137787
3 *21:19 0.0103963
4 *21:18 0.0102585
5 *21:16 0.0304134
6 *21:15 0.0304134
7 *21:13 0.00903228
8 *21:11 0.00919996
9 *21:16 *349:11 0.0400783
10 *16:13 *21:16 0
*RES
1 io_in[28] *21:11 1.755 
2 *21:11 *21:13 87.39 
3 *21:13 *21:15 4.5 
4 *21:15 *21:16 329.49 
5 *21:16 *21:18 4.5 
6 *21:18 *21:19 104.85 
7 *21:19 *419:io_in[28] 10.62 
*END

*D_NET *22 0.0968045
*CONN
*P io_in[29] I
*I *419:io_in[29] I *D tiny_user_project
*CAP
1 io_in[29] 0.00915133
2 *419:io_in[29] 0.00019463
3 *22:11 0.00947091
4 *22:10 0.00927628
5 *22:8 0.0295099
6 *22:7 0.0295099
7 *22:5 0.00915133
8 *419:io_in[29] *419:la_oenb[28] 0.000187842
9 *22:11 *419:la_oenb[28] 0.000352295
*RES
1 io_in[29] *22:5 97.965 
2 *22:5 *22:7 4.5 
3 *22:7 *22:8 294.39 
4 *22:8 *22:10 4.5 
5 *22:10 *22:11 94.23 
6 *22:11 *419:io_in[29] 11.7 
*END

*D_NET *23 0.369476
*CONN
*P io_in[2] I
*I *419:io_in[2] I *D tiny_user_project
*CAP
1 io_in[2] 0.00022183
2 *419:io_in[2] 0.000254175
3 *23:11 0.0484023
4 *23:10 0.0481481
5 *23:8 0.0162484
6 *23:7 0.0164702
7 *419:io_in[2] *419:wbs_dat_i[0] 0.00190265
8 *419:io_in[2] *192:18 0.00034815
9 *419:io_in[2] *254:14 0.00083929
10 *419:io_in[2] *379:38 0.000777122
11 *23:8 *39:8 0.13963
12 *23:8 *40:8 0.0128889
13 *23:11 *419:io_in[3] 0.00109419
14 *23:11 *76:7 0
15 *23:11 *143:8 0
16 *23:11 *252:16 0.0822506
*RES
1 io_in[2] *23:7 6.345 
2 *23:7 *23:8 261.45 
3 *23:8 *23:10 4.5 
4 *23:10 *23:11 573.03 
5 *23:11 *419:io_in[2] 15.435 
*END

*D_NET *24 0.351512
*CONN
*P io_in[30] I
*I *419:io_in[30] I *D tiny_user_project
*CAP
1 io_in[30] 0.000237175
2 *419:io_in[30] 0.00133975
3 *24:19 0.00559738
4 *24:18 0.00425764
5 *24:16 0.0363788
6 *24:15 0.0363788
7 *24:13 0.00738464
8 *24:11 0.00762182
9 *419:io_in[30] *79:12 0.000280576
10 *419:io_in[30] *343:11 0
11 *24:16 *374:13 0
12 *24:19 *46:13 0.0514143
13 *24:19 *93:13 0.161454
14 *24:19 *96:13 0.0391667
*RES
1 io_in[30] *24:11 2.295 
2 *24:11 *24:13 79.11 
3 *24:13 *24:15 4.5 
4 *24:15 *24:16 362.61 
5 *24:16 *24:18 4.5 
6 *24:18 *24:19 247.23 
7 *24:19 *419:io_in[30] 26.0961 
*END

*D_NET *25 0.0799648
*CONN
*P io_in[31] I
*I *419:io_in[31] I *D tiny_user_project
*CAP
1 io_in[31] 0.00010158
2 *419:io_in[31] 4.16685e-05
3 *25:19 0.007733
4 *25:18 0.00769133
5 *25:16 0.0197747
6 *25:15 0.0197747
7 *25:13 0.0101966
8 *25:11 0.0102982
9 *419:io_in[31] *419:la_oenb[39] 0.000187842
10 *25:19 *419:la_oenb[39] 0.00416529
*RES
1 io_in[31] *25:11 1.215 
2 *25:11 *25:13 108.81 
3 *25:13 *25:15 4.5 
4 *25:15 *25:16 197.01 
5 *25:16 *25:18 4.5 
6 *25:18 *25:19 83.43 
7 *25:19 *419:io_in[31] 9.81 
*END

*D_NET *26 0.299109
*CONN
*P io_in[32] I
*I *419:io_in[32] I *D tiny_user_project
*CAP
1 io_in[32] 0.00113819
2 *419:io_in[32] 0.000745173
3 *26:11 0.0136015
4 *26:10 0.0128563
5 *26:8 0.0221595
6 *26:7 0.0232977
7 *419:io_in[32] *283:11 4.83334e-05
8 *26:11 *419:la_oenb[23] 0.00238317
9 *26:11 *419:la_oenb[38] 0.00034815
10 *26:11 *419:wbs_dat_i[1] 0.000994715
11 *26:11 *70:14 0.00113769
12 *26:11 *83:19 0.0445754
13 *26:11 *161:24 0.000932545
14 *26:11 *168:22 0.00213445
15 *26:11 *236:15 0.000393741
16 *26:11 *262:20 0.000932545
17 *26:11 *328:16 0.00925078
18 *26:11 *332:16 0.0203085
19 *26:11 *335:10 0.0234379
20 *26:11 *338:25 0.000596829
21 *26:11 *345:8 0.00850477
22 *26:11 *406:15 0.00121853
23 *18:19 *26:11 0.108113
*RES
1 io_in[32] *26:7 16.065 
2 *26:7 *26:8 221.31 
3 *26:8 *26:10 4.5 
4 *26:10 *26:11 354.69 
5 *26:11 *419:io_in[32] 20.3361 
*END

*D_NET *27 0.0630212
*CONN
*P io_in[33] I
*I *419:io_in[33] I *D tiny_user_project
*CAP
1 io_in[33] 0.00165081
2 *419:io_in[33] 7.1231e-05
3 *27:11 0.0173259
4 *27:10 0.0172546
5 *27:8 0.0125339
6 *27:7 0.0141847
*RES
1 io_in[33] *27:7 21.465 
2 *27:7 *27:8 125.19 
3 *27:8 *27:10 4.5 
4 *27:10 *27:11 175.23 
5 *27:11 *419:io_in[33] 9.81 
*END

*D_NET *28 0.0625678
*CONN
*P io_in[34] I
*I *419:io_in[34] I *D tiny_user_project
*CAP
1 io_in[34] 0.00245288
2 *419:io_in[34] 0.00010265
3 *28:11 0.0149981
4 *28:10 0.0148954
5 *28:8 0.0105929
6 *28:7 0.0130457
7 *419:io_in[34] *419:la_data_in[27] 3.52204e-05
8 *28:8 *314:5 0
9 *28:11 *419:la_data_in[27] 0.00644492
*RES
1 io_in[34] *28:7 29.565 
2 *28:7 *28:8 105.93 
3 *28:8 *28:10 4.5 
4 *28:10 *28:11 167.13 
5 *28:11 *419:io_in[34] 10.26 
*END

*D_NET *29 0.287209
*CONN
*P io_in[35] I
*I *419:io_in[35] I *D tiny_user_project
*CAP
1 io_in[35] 0.00215264
2 *419:io_in[35] 0.000681814
3 *29:19 0.0200513
4 *29:18 0.0193695
5 *29:16 0.0216213
6 *29:15 0.0237739
7 *419:io_in[35] *108:9 1.81328e-05
8 *419:io_in[35] *349:22 0.00012434
9 *29:19 *50:13 0.00644492
10 *29:19 *133:22 0
11 *29:19 *163:16 0.0134908
12 *29:19 *235:16 0
13 *29:19 *316:14 0.17824
14 *29:19 *348:22 0
15 *29:19 *378:18 0.00124029
16 *29:19 *385:13 0
17 *29:19 *387:13 0
*RES
1 io_in[35] *29:15 26.505 
2 *29:15 *29:16 216.09 
3 *29:16 *29:18 4.5 
4 *29:18 *29:19 343.35 
5 *29:19 *419:io_in[35] 19.8 
*END

*D_NET *30 0.22582
*CONN
*P io_in[36] I
*I *419:io_in[36] I *D tiny_user_project
*CAP
1 io_in[36] 0.00010158
2 *419:io_in[36] 0.00138642
3 *30:16 0.0188754
4 *30:15 0.017489
5 *30:13 0.0342273
6 *30:11 0.0343289
7 *419:io_in[36] *419:wbs_dat_i[0] 0.000125894
8 *30:13 *195:16 0
9 *30:13 *365:8 0
10 *30:13 *409:11 0.00952128
11 *30:16 *419:la_oenb[6] 0.0065672
12 *30:16 *32:14 0
13 *30:16 *69:8 0.00417355
14 *30:16 *234:8 0.00530286
15 *30:16 *325:11 0.0937207